#Drain Returnflow
    BEGIN OPTIONS
         RETURNFLOW
    #    PRINTFILE  89
    #    DBFILE    ./Output/DRT_Output.txt
         NOPRINT
    END OPTIONS
    16911 50 0 0
16911 0
1	1	28	553.0	1543.633	-1	72	0	1
1	1	29	568.0	1578.603	-1	72	0	1
1	1	30	575.0	1611.728	-1	76	0	1
1	1	31	603.0	1639.982	-1	76	0	1
2	1	32	625.0	1178.808	-1	94	0	1
2	1	33	716.0	1205.572	-1	135	0	1
2	1	34	721.0	1234.064	-1	135	0	1
2	1	35	806.0	1257.165	-1	135	0	1
2	1	36	839.0	1288.246	-1	135	0	1
2	1	37	886.0	1315.648	-1	135	0	1
2	1	38	1061.0	1340.444	-1	135	0	1
2	1	39	1238.0	1346.876	-1	135	0	1
2	1	40	1343.0	1344.181	-1	82	0	1
2	1	41	1264.0	1332.766	-1	82	0	1
2	1	42	1421.0	1316.77	-1	82	0	1
2	1	43	1582.0	1307.443	-1	82	0	1
2	1	44	1773.0	1289.45	-1	87	0	1
2	1	45	2007.0	1274.861	-1	87	0	1
2	1	46	1922.0	1265.35	-1	87	0	1
2	1	47	1844.0	1258.177	-1	87	0	1
2	1	48	1964.0	1258.588	-1	87	0	1
2	1	49	1810.0	1264.981	-1	87	0	1
2	1	50	1603.0	1266.86	-1	87	0	1
2	1	51	1496.0	1265.333	-1	87	0	1
2	1	52	1410.0	1256.861	-1	87	0	1
2	1	53	1450.0	1237.777	-1	87	0	1
2	1	54	1521.0	1206.701	-1	87	0	1
2	1	55	1696.0	1166.389	-1	87	0	1
2	1	56	1862.0	1121.943	-1	87	0	1
2	1	57	1975.0	1078.442	-1	87	0	1
2	1	58	1980.0	1040.5	-1	87	0	1
2	1	59	1905.0	1012.698	-1	87	0	1
2	1	60	1827.0	994.6288	-1	87	0	1
2	1	61	1678.0	997.2181	-1	87	0	1
2	1	62	1638.0	1013.504	-1	87	0	1
2	1	63	1651.0	1038.851	-1	87	0	1
2	1	64	1870.0	1070.104	-1	87	0	1
2	1	65	2063.0	1099.145	-1	87	0	1
2	1	66	2252.0	1122.201	-1	87	0	1
2	1	67	2392.0	1134.031	-1	87	0	1
2	1	68	2468.0	1132.181	-1	87	0	1
2	1	69	2550.0	1118.908	-1	87	0	1
2	1	70	2447.0	1098.508	-1	87	0	1
2	1	71	2452.0	1075.382	-1	87	0	1
2	1	72	2550.0	1052.243	-1	87	0	1
2	1	73	2506.0	1030.63	-1	87	0	1
1	2	27	531.0	1507.33	-1	72	0	1
1	2	28	544.0	1546.977	-1	72	0	1
1	2	29	550.0	1588.634	-1	72	0	1
1	2	30	558.0	1629.489	-1	1	0	1
1	2	31	572.0	1665.464	-1	1	0	1
1	2	32	576.0	1690.418	-1	76	0	1
1	2	33	625.0	1696.005	-1	76	0	1
2	2	34	649.0	1230.808	-1	135	0	1
2	2	35	708.0	1258.406	-1	135	0	1
2	2	36	788.0	1294.611	-1	135	0	1
2	2	37	916.0	1328.891	-1	135	0	1
2	2	38	1025.0	1363.971	-1	135	0	1
2	2	39	1092.0	1377.06	-1	135	0	1
2	2	40	1166.0	1371.023	-1	82	0	1
2	2	41	1210.0	1353.713	-1	82	0	1
2	2	42	1398.0	1331.418	-1	82	0	1
2	2	43	1521.0	1312.365	-1	82	0	1
2	2	44	1714.0	1289.66	-1	87	0	1
2	2	45	1756.0	1271.322	-1	87	0	1
2	2	46	1692.0	1260.526	-1	87	0	1
2	2	47	1645.0	1256.865	-1	87	0	1
2	2	48	1762.0	1262.022	-1	87	0	1
2	2	49	1710.0	1272.867	-1	87	0	1
2	2	50	1530.0	1281.022	-1	87	0	1
2	2	51	1407.0	1286.194	-1	87	0	1
2	2	52	1360.0	1283.62	-1	87	0	1
2	2	53	1424.0	1265.699	-1	87	0	1
2	2	54	1577.0	1227.798	-1	87	0	1
2	2	55	1719.0	1175.939	-1	87	0	1
2	2	56	1784.0	1119.195	-1	87	0	1
2	2	57	1912.0	1063.877	-1	87	0	1
2	2	58	1931.0	1014.807	-1	87	0	1
2	2	59	1810.0	977.6211	-1	87	0	1
2	2	60	1756.0	957.3212	-1	87	0	1
2	2	61	1566.0	964.3331	-1	87	0	1
2	2	62	1685.0	989.852	-1	87	0	1
2	2	63	1831.0	1027.26	-1	87	0	1
2	2	64	1961.0	1068.949	-1	87	0	1
2	2	65	2007.0	1109.731	-1	87	0	1
2	2	66	2179.0	1143.344	-1	87	0	1
2	2	67	2325.0	1160.199	-1	87	0	1
2	2	68	2444.0	1154.523	-1	87	0	1
2	2	69	2562.0	1132.671	-1	87	0	1
2	2	70	2561.0	1103.872	-1	87	0	1
2	2	71	2481.0	1073.856	-1	87	0	1
2	2	72	2513.0	1045.827	-1	87	0	1
1	3	27	518.0	1486.91	-1	72	0	1
1	3	28	528.0	1524.771	-1	72	0	1
1	3	29	540.0	1572.267	-1	1	0	1
1	3	30	547.0	1631.199	-1	1	0	1
1	3	31	550.0	1690.935	-1	1	0	1
1	3	32	560.0	1724.785	-1	76	0	1
1	3	33	585.0	1700.126	-1	76	0	1
2	3	34	643.0	1222.027	-1	135	0	1
2	3	35	660.0	1252.603	-1	135	0	1
2	3	36	735.0	1292.724	-1	135	0	1
2	3	37	767.0	1335.197	-1	135	0	1
2	3	38	908.0	1384.249	-1	135	0	1
2	3	39	1055.0	1413.186	-1	82	0	1
2	3	40	1045.0	1400.806	-1	82	0	1
2	3	41	1155.0	1363.28	-1	82	0	1
2	3	42	1435.0	1323.882	-1	82	0	1
2	3	43	1557.0	1295.59	-1	87	0	1
2	3	44	1532.0	1278.598	-1	87	0	1
2	3	45	1498.0	1264.131	-1	87	0	1
2	3	46	1442.0	1249.974	-1	87	0	1
2	3	47	1408.0	1253.092	-1	87	0	1
2	3	48	1656.0	1255.718	-1	87	0	1
2	3	49	1637.0	1261.231	-1	87	0	1
2	3	50	1466.0	1277.533	-1	87	0	1
2	3	51	1302.0	1298.56	-1	87	0	1
2	3	52	1291.0	1317.181	-1	87	0	1
2	3	53	1374.0	1305.845	-1	87	0	1
2	3	54	1551.0	1255.933	-1	87	0	1
2	3	55	1708.0	1185.944	-1	87	0	1
2	3	56	1670.0	1116.184	-1	87	0	1
2	3	57	1710.0	1050.48	-1	87	0	1
2	3	58	1738.0	989.4754	-1	87	0	1
2	3	59	1696.0	936.9814	-1	87	0	1
2	3	60	1661.0	909.3146	-1	87	0	1
2	3	61	1549.0	925.1036	-1	87	0	1
2	3	62	1690.0	964.0364	-1	87	0	1
2	3	63	1900.0	1011.254	-1	87	0	1
2	3	64	2129.0	1062.153	-1	87	0	1
2	3	65	2161.0	1117.081	-1	87	0	1
2	3	66	2106.0	1171.114	-1	87	0	1
2	3	67	2274.0	1197.815	-1	87	0	1
2	3	68	2386.0	1181.301	-1	87	0	1
2	3	69	2466.0	1141.336	-1	87	0	1
2	3	70	2637.0	1100.763	-1	87	0	1
2	3	71	2505.0	1064.436	-1	87	0	1
1	4	26	503.0	1420.373	-1	72	0	1
1	4	27	510.0	1445.473	-1	72	0	1
1	4	28	515.0	1477.397	-1	72	0	1
1	4	29	524.0	1518.358	-1	1	0	1
1	4	30	531.0	1575.702	-1	1	0	1
1	4	31	536.0	1655.182	-1	1	0	1
1	4	32	548.0	1764.141	-1	1	0	1
1	4	33	566.0	1652.219	-1	76	0	1
1	4	34	698.0	1571.538	-1	76	0	1
2	4	35	794.0	1237.445	-1	135	0	1
2	4	36	836.0	1277.218	-1	135	0	1
2	4	37	839.0	1322.253	-1	135	0	1
2	4	38	980.0	1382.318	-1	82	0	1
2	4	39	987.0	1457.001	-1	82	0	1
2	4	40	977.0	1380.999	-1	82	0	1
2	4	41	1144.0	1320.259	-1	82	0	1
2	4	42	1285.0	1273.627	-1	82	0	1
2	4	43	1394.0	1240.084	-1	87	0	1
2	4	44	1368.0	1221.505	-1	87	0	1
2	4	45	1323.0	1218.312	-1	87	0	1
2	4	46	1357.0	1232.052	-1	87	0	1
2	4	47	1230.0	1212.309	-1	87	0	1
2	4	48	1424.0	1208.806	-1	87	0	1
2	4	49	1529.0	1219.447	-1	87	0	1
2	4	50	1372.0	1242.406	-1	87	0	1
2	4	51	1214.0	1274.24	-1	87	0	1
2	4	52	1211.0	1314.626	-1	87	0	1
2	4	53	1263.0	1363.243	-1	87	0	1
2	4	54	1482.0	1269.541	-1	87	0	1
2	4	55	1584.0	1187.371	-1	87	0	1
2	4	56	1489.0	1113.095	-1	87	0	1
2	4	57	1523.0	1043.97	-1	87	0	1
2	4	58	1548.0	977.9816	-1	87	0	1
2	4	59	1528.0	913.4937	-1	87	0	1
2	4	60	1495.0	849.1142	-1	87	0	1
2	4	61	1493.0	899.8611	-1	87	0	1
2	4	62	1673.0	949.5857	-1	87	0	1
2	4	63	1864.0	1000.134	-1	87	0	1
2	4	64	2071.0	1052.945	-1	87	0	1
2	4	65	2263.0	1110.516	-1	87	0	1
2	4	66	2251.0	1175.607	-1	87	0	1
2	4	67	2266.0	1251.773	-1	87	0	1
2	4	68	2425.0	1186.139	-1	87	0	1
2	4	69	2486.0	1131.625	-1	87	0	1
2	4	70	2638.0	1085.731	-1	87	0	1
2	4	71	2601.0	1046.86	-1	87	0	1
1	5	24	478.0	1351.41	-1	72	0	1
1	5	25	487.0	1363.866	-1	72	0	1
1	5	26	496.0	1377.345	-1	72	0	1
1	5	27	504.0	1392.11	-1	72	0	1
1	5	28	507.0	1410.347	-1	72	0	1
1	5	29	513.0	1438.04	-1	1	0	1
1	5	30	516.0	1477.837	-1	1	0	1
1	5	31	520.0	1528.121	-1	1	0	1
1	5	32	533.0	1560.618	-1	1	0	1
1	5	33	538.0	1528.91	-1	76	0	1
1	5	34	569.0	1474.95	-1	76	0	1
1	5	35	803.0	1434.388	-1	76	0	1
2	5	36	854.0	1243.312	-1	135	0	1
2	5	37	787.0	1285.459	-1	82	0	1
2	5	38	867.0	1332.94	-1	82	0	1
2	5	39	902.0	1342.099	-1	82	0	1
2	5	40	1079.0	1301.237	-1	82	0	1
2	5	41	1077.0	1247.973	-1	82	0	1
2	5	42	1158.0	1202.058	-1	82	0	1
2	5	43	1306.0	1166.528	-1	87	0	1
2	5	44	1327.0	1143.615	-1	87	0	1
2	5	45	1156.0	1132.44	-1	87	0	1
2	5	46	1198.0	1131.616	-1	87	0	1
2	5	47	1103.0	1134.158	-1	87	0	1
2	5	48	1199.0	1143.682	-1	87	0	1
2	5	49	1367.0	1162.723	-1	87	0	1
2	5	50	1278.0	1191.455	-1	87	0	1
2	5	51	1168.0	1227.774	-1	87	0	1
2	5	52	1169.0	1266.413	-1	87	0	1
2	5	53	1206.0	1279.435	-1	87	0	1
2	5	54	1340.0	1240.475	-1	87	0	1
2	5	55	1393.0	1177.73	-1	87	0	1
2	5	56	1390.0	1110.033	-1	87	0	1
2	5	57	1368.0	1046.096	-1	87	0	1
2	5	58	1340.0	985.7457	-1	87	0	1
2	5	59	1361.0	930.1756	-1	87	0	1
2	5	60	1505.0	897.809	-1	87	0	1
2	5	61	1581.0	912.5977	-1	87	0	1
2	5	62	1634.0	952.0129	-1	87	0	1
2	5	63	1841.0	995.9589	-1	87	0	1
2	5	64	2018.0	1042.543	-1	87	0	1
2	5	65	2182.0	1092.63	-1	87	0	1
2	5	66	2287.0	1143.912	-1	87	0	1
2	5	67	2372.0	1171.008	-1	87	0	1
2	5	68	2562.0	1147.581	-1	87	0	1
2	5	69	2591.0	1100.856	-1	87	0	1
2	5	70	2561.0	1057.929	-1	87	0	1
2	5	71	2563.0	1020.459	-1	87	0	1
1	6	22	459.0	1282.798	-1	72	0	1
1	6	23	467.0	1303.64	-1	72	0	1
1	6	24	474.0	1318.879	-1	72	0	1
1	6	25	481.0	1325.047	-1	72	0	1
1	6	26	487.0	1329.515	-1	72	0	1
1	6	27	493.0	1329.848	-1	72	0	1
1	6	28	499.0	1333.9	-1	1	0	1
1	6	29	501.0	1343.217	-1	1	0	1
1	6	30	505.0	1358.307	-1	1	0	1
1	6	31	509.0	1376.306	-1	1	0	1
1	6	32	516.0	1385.828	-1	1	0	1
1	6	33	516.0	1377.785	-1	76	0	1
1	6	34	541.0	1357.664	-1	76	0	1
1	6	35	622.0	1341.027	-1	76	0	1
2	6	36	688.0	1202.911	-1	82	0	1
2	6	37	712.0	1233.226	-1	82	0	1
2	6	38	734.0	1253.099	-1	82	0	1
2	6	39	815.0	1243.444	-1	82	0	1
2	6	40	964.0	1210.689	-1	82	0	1
2	6	41	964.0	1165.385	-1	82	0	1
2	6	42	1044.0	1120.847	-1	82	0	1
2	6	43	1165.0	1083.234	-1	82	0	1
2	6	44	1267.0	1054.45	-1	87	0	1
2	6	45	1132.0	1037.292	-1	87	0	1
2	6	46	1029.0	1034.601	-1	87	0	1
2	6	47	967.0	1042.721	-1	87	0	1
2	6	48	992.0	1066.284	-1	87	0	1
2	6	49	1117.0	1096.339	-1	87	0	1
2	6	50	1153.0	1133.028	-1	87	0	1
2	6	51	1153.0	1173.162	-1	87	0	1
2	6	52	1084.0	1207.098	-1	87	0	1
2	6	53	1163.0	1217.29	-1	87	0	1
2	6	54	1220.0	1198.272	-1	87	0	1
2	6	55	1288.0	1158.062	-1	87	0	1
2	6	56	1270.0	1106.039	-1	87	0	1
2	6	57	1177.0	1051.735	-1	87	0	1
2	6	58	1305.0	1000.722	-1	87	0	1
2	6	59	1498.0	957.388	-1	87	0	1
2	6	60	1602.0	935.4399	-1	87	0	1
2	6	61	1551.0	937.9245	-1	87	0	1
2	6	62	1592.0	961.7228	-1	87	0	1
2	6	63	1675.0	994.7112	-1	87	0	1
2	6	64	1868.0	1030.89	-1	87	0	1
2	6	65	1978.0	1068.619	-1	87	0	1
2	6	66	2119.0	1097.348	-1	87	0	1
2	6	67	2327.0	1108.098	-1	87	0	1
2	6	68	2505.0	1094.624	-1	87	0	1
2	6	69	2653.0	1061.441	-1	87	0	1
2	6	70	2641.0	1024.0	-1	87	0	1
1	7	17	727.0	1201.996	-1	72	0	1
1	7	18	622.0	1209.147	-1	72	0	1
1	7	19	516.0	1217.942	-1	72	0	1
1	7	20	488.0	1228.663	-1	72	0	1
1	7	21	473.0	1241.628	-1	72	0	1
1	7	22	460.0	1257.3	-1	72	0	1
1	7	23	465.0	1276.125	-1	72	0	1
1	7	24	471.0	1286.133	-1	72	0	1
1	7	25	477.0	1285.84	-1	72	0	1
1	7	26	480.0	1278.191	-1	72	0	1
1	7	27	483.0	1266.493	-1	72	0	1
1	7	28	489.0	1255.005	-1	1	0	1
1	7	29	492.0	1245.088	-1	1	0	1
1	7	30	495.0	1237.828	-1	1	0	1
1	7	31	498.0	1233.381	-1	1	0	1
1	7	32	501.0	1233.186	-1	1	0	1
1	7	33	501.0	1234.867	-1	76	0	1
1	7	34	509.0	1238.361	-1	76	0	1
1	7	35	544.0	1244.851	-1	76	0	1
1	7	36	632.0	1254.706	-1	76	0	1
2	7	37	655.0	1175.241	-1	82	0	1
2	7	38	693.0	1177.442	-1	82	0	1
2	7	39	752.0	1158.999	-1	82	0	1
2	7	40	816.0	1127.001	-1	82	0	1
2	7	41	887.0	1084.348	-1	82	0	1
2	7	42	1019.0	1039.528	-1	82	0	1
2	7	43	1158.0	998.1982	-1	87	0	1
2	7	44	1217.0	963.4585	-1	87	0	1
2	7	45	1134.0	943.0401	-1	87	0	1
2	7	46	1072.0	939.729	-1	87	0	1
2	7	47	929.0	953.0569	-1	87	0	1
2	7	48	819.0	985.3086	-1	87	0	1
2	7	49	878.0	1027.121	-1	87	0	1
2	7	50	1119.0	1073.324	-1	87	0	1
2	7	51	1098.0	1120.059	-1	87	0	1
2	7	52	1028.0	1156.099	-1	87	0	1
2	7	53	1104.0	1172.57	-1	87	0	1
2	7	54	1104.0	1166.142	-1	87	0	1
2	7	55	1100.0	1140.396	-1	87	0	1
2	7	56	1116.0	1101.96	-1	87	0	1
2	7	57	1118.0	1057.692	-1	87	0	1
2	7	58	1322.0	1015.87	-1	87	0	1
2	7	59	1427.0	982.2545	-1	87	0	1
2	7	60	1499.0	963.684	-1	87	0	1
2	7	61	1491.0	960.5365	-1	87	0	1
2	7	62	1639.0	971.9177	-1	87	0	1
2	7	63	1692.0	993.7959	-1	87	0	1
2	7	64	1795.0	1018.598	-1	87	0	1
2	7	65	1897.0	1043.238	-1	87	0	1
2	7	66	2089.0	1056.907	-1	87	0	1
2	7	67	2179.0	1058.551	-1	87	0	1
2	7	68	2430.0	1045.618	-1	87	0	1
2	7	69	2633.0	1020.271	-1	87	0	1
2	7	70	2620.0	987.9398	-1	87	0	1
2	7	71	2573.0	955.7934	-1	87	0	1
2	8	15	845.0	794.7698	-1	103	0	1
1	8	16	800.0	1179.216	-1	72	0	1
1	8	17	772.0	1183.507	-1	72	0	1
1	8	18	662.0	1189.08	-1	72	0	1
1	8	19	535.0	1196.187	-1	72	0	1
1	8	20	495.0	1205.11	-1	72	0	1
1	8	21	475.0	1216.157	-1	72	0	1
1	8	22	462.0	1229.751	-1	72	0	1
1	8	23	464.0	1246.269	-1	72	0	1
1	8	24	468.0	1254.948	-1	72	0	1
1	8	25	472.0	1248.953	-1	72	0	1
1	8	26	473.0	1230.278	-1	72	0	1
1	8	27	474.0	1206.459	-1	72	0	1
1	8	28	479.0	1180.147	-1	72	0	1
1	8	29	484.0	1152.587	-1	1	0	1
1	8	30	490.0	1125.966	-1	1	0	1
1	8	31	490.0	1104.174	-1	1	0	1
1	8	32	490.0	1097.383	-1	72	0	1
1	8	33	493.0	1105.997	-1	72	0	1
1	8	34	510.0	1127.481	-1	76	0	1
1	8	35	532.0	1154.269	-1	76	0	1
1	8	36	550.0	1180.491	-1	76	0	1
1	8	37	633.0	1206.91	-1	76	0	1
2	8	38	701.0	1111.648	-1	82	0	1
2	8	39	729.0	1087.553	-1	82	0	1
2	8	40	769.0	1053.847	-1	82	0	1
2	8	41	895.0	1010.964	-1	82	0	1
2	8	42	1058.0	963.9513	-1	87	0	1
2	8	43	1152.0	917.8187	-1	87	0	1
2	8	44	1128.0	876.0801	-1	87	0	1
2	8	45	1075.0	850.8886	-1	87	0	1
2	8	46	973.0	846.3033	-1	87	0	1
2	8	47	872.0	864.5515	-1	87	0	1
2	8	48	713.0	906.12	-1	87	0	1
2	8	49	823.0	960.1508	-1	87	0	1
2	8	50	955.0	1017.351	-1	87	0	1
2	8	51	932.0	1073.57	-1	87	0	1
2	8	52	908.0	1117.911	-1	87	0	1
2	8	53	1033.0	1143.215	-1	87	0	1
2	8	54	1000.0	1146.149	-1	87	0	1
2	8	55	920.0	1129.731	-1	87	0	1
2	8	56	1024.0	1098.748	-1	87	0	1
2	8	57	1174.0	1062.898	-1	87	0	1
2	8	58	1285.0	1028.957	-1	87	0	1
2	8	59	1390.0	1001.508	-1	87	0	1
2	8	60	1399.0	984.5126	-1	87	0	1
2	8	61	1460.0	977.5928	-1	87	0	1
2	8	62	1622.0	980.429	-1	87	0	1
2	8	63	1691.0	992.6678	-1	87	0	1
2	8	64	1785.0	1006.749	-1	87	0	1
2	8	65	1968.0	1020.415	-1	87	0	1
2	8	66	2190.0	1023.967	-1	87	0	1
2	8	67	2294.0	1019.092	-1	87	0	1
2	8	68	2408.0	1004.692	-1	87	0	1
2	8	69	2522.0	981.6387	-1	87	0	1
2	8	70	2483.0	952.9246	-1	87	0	1
2	8	71	2483.0	922.6252	-1	87	0	1
2	8	72	2456.0	893.1685	-1	87	0	1
2	9	12	983.0	721.0346	-1	103	0	1
2	9	13	933.0	739.7531	-1	103	0	1
2	9	14	913.0	767.1407	-1	103	0	1
2	9	15	868.0	793.1216	-1	103	0	1
1	9	16	869.0	1161.608	-1	72	0	1
1	9	17	805.0	1164.284	-1	72	0	1
1	9	18	694.0	1168.102	-1	72	0	1
1	9	19	559.0	1173.32	-1	72	0	1
1	9	20	504.0	1180.234	-1	72	0	1
1	9	21	477.0	1189.174	-1	72	0	1
1	9	22	461.0	1200.502	-1	72	0	1
1	9	23	460.0	1214.688	-1	72	0	1
1	9	24	465.0	1226.605	-1	72	0	1
1	9	25	467.0	1216.933	-1	72	0	1
1	9	26	467.0	1188.617	-1	72	0	1
1	9	27	468.0	1153.813	-1	72	0	1
1	9	28	469.0	1113.056	-1	72	0	1
1	9	29	476.0	1069.945	-1	1	0	1
1	9	30	481.0	1026.825	-1	72	0	1
1	9	31	483.0	988.7685	-1	72	0	1
1	9	32	484.0	974.0554	-1	72	0	1
1	9	33	482.0	990.6905	-1	72	0	1
1	9	34	500.0	1029.556	-1	72	0	1
1	9	35	522.0	1071.725	-1	76	0	1
1	9	36	535.0	1112.957	-1	76	0	1
1	9	37	633.0	1151.856	-1	76	0	1
2	9	38	725.0	1056.271	-1	87	0	1
2	9	39	729.0	1028.326	-1	87	0	1
2	9	40	756.0	992.3697	-1	87	0	1
2	9	41	830.0	947.1497	-1	87	0	1
2	9	42	897.0	898.0989	-1	87	0	1
2	9	43	968.0	847.1072	-1	87	0	1
2	9	44	982.0	796.3547	-1	87	0	1
2	9	45	975.0	761.8481	-1	87	0	1
2	9	46	871.0	753.5378	-1	87	0	1
2	9	47	693.0	777.9351	-1	87	0	1
2	9	48	627.0	833.5576	-1	87	0	1
2	9	49	696.0	900.366	-1	87	0	1
2	9	50	678.0	968.6597	-1	87	0	1
2	9	51	786.0	1035.946	-1	87	0	1
2	9	52	911.0	1093.14	-1	87	0	1
2	9	53	977.0	1128.847	-1	87	0	1
2	9	54	818.0	1138.11	-1	87	0	1
2	9	55	927.0	1125.138	-1	87	0	1
2	9	56	1018.0	1095.404	-1	87	0	1
2	9	57	1138.0	1066.294	-1	87	0	1
2	9	58	1212.0	1039.461	-1	87	0	1
2	9	59	1281.0	1015.985	-1	87	0	1
2	9	60	1395.0	999.9024	-1	87	0	1
2	9	61	1533.0	990.1157	-1	87	0	1
2	9	62	1555.0	989.1881	-1	87	0	1
2	9	63	1609.0	994.444	-1	87	0	1
2	9	64	1780.0	998.0281	-1	87	0	1
2	9	65	2029.0	999.7627	-1	87	0	1
2	9	66	2237.0	997.3554	-1	87	0	1
2	9	67	2404.0	987.336	-1	87	0	1
2	9	68	2439.0	971.2022	-1	87	0	1
2	9	69	2321.0	948.5503	-1	87	0	1
2	9	70	2400.0	922.1628	-1	87	0	1
2	9	71	2380.0	891.782	-1	87	0	1
2	9	72	2362.0	859.958	-1	87	0	1
2	9	73	2395.0	832.636	-1	87	0	1
2	10	9	1201.0	750.6846	-1	103	0	1
2	10	10	1167.0	720.8749	-1	103	0	1
2	10	11	1014.0	700.955	-1	103	0	1
2	10	12	989.0	710.0947	-1	103	0	1
2	10	13	930.0	737.8172	-1	103	0	1
2	10	14	872.0	765.5645	-1	103	0	1
2	10	15	848.0	792.0942	-1	103	0	1
2	10	16	791.0	821.3518	-1	103	0	1
1	10	17	730.0	1170.6	-1	72	0	1
1	10	18	716.0	1146.438	-1	72	0	1
1	10	19	613.0	1149.554	-1	72	0	1
1	10	20	507.0	1154.214	-1	72	0	1
1	10	21	479.0	1160.801	-1	72	0	1
1	10	22	466.0	1169.738	-1	72	0	1
1	10	23	456.0	1181.573	-1	72	0	1
1	10	24	459.0	1196.224	-1	72	0	1
1	10	25	461.0	1191.748	-1	72	0	1
1	10	26	462.0	1153.848	-1	72	0	1
1	10	27	464.0	1101.891	-1	72	0	1
1	10	28	464.0	1047.896	-1	72	0	1
1	10	29	467.0	994.0468	-1	72	0	1
1	10	30	472.0	940.1013	-1	72	0	1
1	10	31	475.0	888.4825	-1	72	0	1
1	10	32	474.0	859.6154	-1	72	0	1
1	10	33	471.0	891.8942	-1	72	0	1
1	10	34	486.0	949.3982	-1	72	0	1
1	10	35	501.0	1006.059	-1	76	0	1
1	10	36	511.0	1058.975	-1	76	0	1
1	10	37	575.0	1107.736	-1	76	0	1
2	10	38	633.0	1008.649	-1	87	0	1
2	10	39	674.0	980.6955	-1	87	0	1
2	10	40	740.0	942.4735	-1	87	0	1
2	10	41	770.0	895.8597	-1	87	0	1
2	10	42	712.0	845.7989	-1	87	0	1
2	10	43	783.0	791.995	-1	87	0	1
2	10	44	728.0	735.0885	-1	87	0	1
2	10	45	790.0	679.7973	-1	87	0	1
2	10	46	643.0	660.669	-1	87	0	1
2	10	47	563.0	699.7449	-1	87	0	1
2	10	48	661.0	775.5338	-1	87	0	1
2	10	49	580.0	853.2629	-1	87	0	1
2	10	50	673.0	929.9561	-1	87	0	1
2	10	51	790.0	1005.831	-1	87	0	1
2	10	52	824.0	1079.579	-1	87	0	1
2	10	53	847.0	1130.581	-1	87	0	1
2	10	54	766.0	1139.085	-1	87	0	1
2	10	55	966.0	1115.456	-1	87	0	1
2	10	56	1029.0	1090.24	-1	87	0	1
2	10	57	1166.0	1066.392	-1	87	0	1
2	10	58	1216.0	1044.986	-1	87	0	1
2	10	59	1291.0	1026.7	-1	87	0	1
2	10	60	1362.0	1011.649	-1	87	0	1
2	10	61	1488.0	1002.464	-1	87	0	1
2	10	62	1492.0	1001.701	-1	87	0	1
2	10	63	1573.0	1001.201	-1	87	0	1
2	10	64	1798.0	998.0514	-1	87	0	1
2	10	65	2010.0	990.0695	-1	87	0	1
2	10	66	2252.0	976.592	-1	87	0	1
2	10	67	2505.0	961.4895	-1	87	0	1
2	10	68	2464.0	946.7631	-1	87	0	1
2	10	69	2324.0	936.6436	-1	87	0	1
2	10	70	2202.0	915.7335	-1	87	0	1
2	10	71	2316.0	884.0234	-1	87	0	1
2	10	72	2284.0	843.3722	-1	87	0	1
2	10	73	2331.0	799.2075	-1	87	0	1
2	10	74	2346.0	776.0293	-1	87	0	1
2	10	75	2276.0	775.9658	-1	87	0	1
2	10	76	2152.0	791.5146	-1	87	0	1
2	11	5	1291.0	874.3573	-1	103	0	1
2	11	8	1291.0	790.1948	-1	103	0	1
2	11	9	1268.0	755.5979	-1	103	0	1
2	11	10	1185.0	718.768	-1	103	0	1
2	11	11	972.0	677.3293	-1	103	0	1
2	11	12	942.0	712.4287	-1	103	0	1
2	11	13	948.0	744.7403	-1	103	0	1
2	11	14	847.0	774.3703	-1	103	0	1
2	11	15	804.0	801.5006	-1	103	0	1
2	11	16	783.0	826.3358	-1	103	0	1
1	11	17	675.0	1163.758	-1	72	0	1
1	11	18	586.0	1180.357	-1	72	0	1
1	11	19	568.0	1125.144	-1	72	0	1
1	11	20	511.0	1127.242	-1	72	0	1
1	11	21	485.0	1131.069	-1	72	0	1
1	11	22	470.0	1137.146	-1	72	0	1
1	11	23	458.0	1146.111	-1	72	0	1
1	11	24	455.0	1158.683	-1	72	0	1
1	11	25	455.0	1175.293	-1	72	0	1
1	11	26	456.0	1109.876	-1	72	0	1
1	11	27	456.0	1049.318	-1	72	0	1
1	11	28	457.0	991.4995	-1	72	0	1
1	11	29	460.0	934.4506	-1	3	0	1
1	11	30	463.0	876.3653	-1	3	0	1
1	11	31	465.0	815.6665	-1	3	0	1
1	11	32	465.0	751.1558	-1	72	0	1
1	11	33	465.0	826.6162	-1	72	0	1
1	11	34	471.0	896.2724	-1	72	0	1
1	11	35	484.0	960.868	-1	72	0	1
1	11	36	496.0	1020.879	-1	2	0	1
1	11	37	502.0	1076.408	-1	76	0	1
1	11	38	503.0	1127.246	-1	2	0	1
2	11	39	604.0	943.985	-1	87	0	1
2	11	40	639.0	903.7857	-1	87	0	1
2	11	41	612.0	859.1867	-1	87	0	1
2	11	42	585.0	810.2625	-1	87	0	1
2	11	43	636.0	756.9547	-1	87	0	1
2	11	44	590.0	699.1612	-1	87	0	1
2	11	45	551.0	636.0587	-1	87	0	1
2	11	46	556.0	567.205	-1	87	0	1
2	11	47	749.0	657.4082	-1	87	0	1
2	11	48	849.0	742.7354	-1	87	0	1
2	11	49	680.0	824.1642	-1	87	0	1
2	11	50	620.0	903.2581	-1	87	0	1
2	11	51	666.0	982.0754	-1	87	0	1
2	11	52	660.0	1063.378	-1	87	0	1
2	11	53	687.0	1151.125	-1	87	0	1
2	11	54	753.0	1127.353	-1	87	0	1
2	11	55	962.0	1104.667	-1	87	0	1
2	11	56	1019.0	1083.226	-1	87	0	1
2	11	57	1163.0	1063.497	-1	87	0	1
2	11	58	1232.0	1046.131	-1	87	0	1
2	11	59	1245.0	1031.847	-1	87	0	1
2	11	60	1272.0	1021.312	-1	87	0	1
2	11	61	1387.0	1016.956	-1	87	0	1
2	11	62	1461.0	1014.948	-1	87	0	1
2	11	63	1527.0	1012.786	-1	87	0	1
2	11	64	1721.0	1007.523	-1	87	0	1
2	11	65	2000.0	995.9503	-1	87	0	1
2	11	66	2237.0	974.6238	-1	87	0	1
2	11	67	2373.0	940.1265	-1	87	0	1
2	11	68	2456.0	951.6138	-1	87	0	1
2	11	69	2330.0	947.3763	-1	87	0	1
2	11	70	2172.0	928.8896	-1	87	0	1
2	11	71	2181.0	897.4331	-1	87	0	1
2	11	72	2219.0	853.9843	-1	87	0	1
2	11	73	2196.0	799.2808	-1	87	0	1
2	11	74	2261.0	734.0583	-1	87	0	1
2	11	75	2252.0	770.3634	-1	87	0	1
2	11	76	2137.0	795.7785	-1	87	0	1
2	11	77	2218.0	812.3555	-1	87	0	1
2	11	78	2196.0	822.2208	-1	87	0	1
2	12	3	1343.0	927.539	-1	103	0	1
2	12	4	1312.0	910.6615	-1	103	0	1
2	12	5	1290.0	891.0002	-1	103	0	1
2	12	6	1293.0	870.8795	-1	103	0	1
2	12	7	1341.0	842.5531	-1	103	0	1
2	12	8	1285.0	811.2339	-1	103	0	1
2	12	9	1213.0	777.8511	-1	103	0	1
2	12	10	1137.0	745.6463	-1	103	0	1
2	12	11	960.0	723.2772	-1	103	0	1
2	12	12	794.0	734.8087	-1	103	0	1
2	12	13	774.0	763.3995	-1	103	0	1
2	12	14	737.0	791.3212	-1	103	0	1
2	12	15	716.0	817.228	-1	103	0	1
2	12	16	807.0	840.9764	-1	103	0	1
2	12	17	759.0	862.6544	-1	103	0	1
1	12	18	607.0	1145.046	-1	72	0	1
1	12	19	516.0	1148.061	-1	72	0	1
1	12	20	497.0	1099.638	-1	72	0	1
1	12	21	489.0	1100.169	-1	72	0	1
1	12	22	477.0	1102.516	-1	72	0	1
1	12	23	461.0	1107.323	-1	72	0	1
1	12	24	452.0	1114.316	-1	72	0	1
1	12	25	448.0	1102.362	-1	72	0	1
1	12	26	450.0	1054.508	-1	72	0	1
1	12	27	452.0	998.9324	-1	3	0	1
1	12	28	452.0	945.2359	-1	3	0	1
1	12	29	453.0	892.2334	-1	72	0	1
1	12	30	455.0	839.8692	-1	3	0	1
1	12	31	456.0	796.4511	-1	3	0	1
1	12	32	455.0	779.8086	-1	72	0	1
1	12	33	458.0	809.2322	-1	72	0	1
1	12	34	461.0	871.7866	-1	72	0	1
2	12	39	476.0	919.6805	-1	87	0	1
2	12	40	499.0	883.8855	-1	87	0	1
2	12	41	496.0	838.891	-1	87	0	1
2	12	42	502.0	793.144	-1	87	0	1
2	12	43	535.0	743.972	-1	87	0	1
2	12	44	562.0	691.7619	-1	87	0	1
2	12	45	649.0	642.6034	-1	87	0	1
2	12	46	707.0	631.6787	-1	87	0	1
2	12	47	767.0	667.7239	-1	87	0	1
2	12	48	1024.0	739.68	-1	87	0	1
2	12	49	880.0	814.1304	-1	87	0	1
2	12	50	827.0	888.0061	-1	87	0	1
2	12	51	837.0	961.331	-1	87	0	1
2	12	52	813.0	1033.039	-1	87	0	1
2	12	53	846.0	1092.612	-1	87	0	1
2	12	54	698.0	1106.904	-1	87	0	1
2	12	55	794.0	1091.517	-1	87	0	1
2	12	56	931.0	1073.885	-1	87	0	1
2	12	57	1114.0	1057.585	-1	87	0	1
2	12	58	1116.0	1043.194	-1	87	0	1
2	12	59	1156.0	1033.924	-1	87	0	1
2	12	60	1283.0	1026.67	-1	87	0	1
2	12	61	1422.0	1026.656	-1	87	0	1
2	12	62	1472.0	1028.414	-1	87	0	1
2	12	63	1566.0	1029.667	-1	87	0	1
2	12	64	1737.0	1028.148	-1	87	0	1
2	12	65	1966.0	1021.381	-1	87	0	1
2	12	66	2088.0	1012.097	-1	87	0	1
2	12	67	2165.0	999.199	-1	87	0	1
2	12	68	2296.0	990.2876	-1	87	0	1
2	12	69	2236.0	982.4906	-1	87	0	1
2	12	70	2080.0	963.7872	-1	87	0	1
2	12	71	2066.0	933.7757	-1	87	0	1
2	12	72	2121.0	893.6499	-1	87	0	1
2	12	73	2080.0	847.045	-1	87	0	1
2	12	74	2266.0	812.7758	-1	87	0	1
2	12	75	2147.0	806.3994	-1	87	0	1
2	12	76	2020.0	820.7715	-1	87	0	1
2	12	77	2168.0	831.4063	-1	87	0	1
2	12	78	2128.0	836.0748	-1	87	0	1
2	13	1	1480.0	970.9125	-1	103	0	1
2	13	2	1386.0	963.7766	-1	103	0	1
2	13	3	1329.0	952.5656	-1	103	0	1
2	13	4	1316.0	937.1509	-1	103	0	1
2	13	5	1303.0	918.5475	-1	103	0	1
2	13	6	1250.0	895.3768	-1	103	0	1
2	13	7	1230.0	870.5107	-1	103	0	1
2	13	8	1206.0	841.0251	-1	103	0	1
2	13	9	1186.0	811.9877	-1	103	0	1
2	13	10	1062.0	785.4319	-1	103	0	1
2	13	11	858.0	768.5192	-1	103	0	1
2	13	12	911.0	769.953	-1	103	0	1
2	13	13	864.0	791.8202	-1	103	0	1
2	13	14	851.0	815.7269	-1	103	0	1
2	13	15	721.0	838.8833	-1	103	0	1
2	13	16	658.0	860.3759	-1	103	0	1
2	13	17	629.0	880.0517	-1	103	0	1
1	13	18	571.0	1110.755	-1	72	0	1
1	13	19	606.0	1119.053	-1	72	0	1
1	13	20	511.0	1126.604	-1	72	0	1
1	13	21	479.0	1068.93	-1	72	0	1
1	13	22	466.0	1066.787	-1	72	0	1
1	13	23	459.0	1066.295	-1	72	0	1
1	13	24	450.0	1063.383	-1	72	0	1
1	13	25	445.0	1042.667	-1	72	0	1
1	13	26	444.0	1006.653	-1	3	0	1
1	13	27	446.0	961.5411	-1	3	0	1
1	13	28	447.0	915.0211	-1	3	0	1
1	13	29	449.0	871.1436	-1	72	0	1
1	13	30	448.0	831.8954	-1	3	0	1
1	13	31	447.0	807.0023	-1	3	0	1
1	13	32	451.0	799.46	-1	3	0	1
1	13	33	454.0	813.5073	-1	72	0	1
1	13	36	460.0	990.1045	-1	72	0	1
1	13	37	462.0	1052.497	-1	72	0	1
1	13	38	465.0	1111.477	-1	2	0	1
1	13	39	483.0	1164.757	-1	76	0	1
2	13	40	527.0	880.4939	-1	87	0	1
2	13	41	501.0	839.2515	-1	87	0	1
2	13	42	560.0	795.6987	-1	87	0	1
2	13	43	716.0	752.2333	-1	87	0	1
2	13	44	731.0	711.866	-1	87	0	1
2	13	45	732.0	687.8439	-1	87	0	1
2	13	46	866.0	686.7012	-1	87	0	1
2	13	47	911.0	711.3728	-1	87	0	1
2	13	48	1039.0	758.4204	-1	87	0	1
2	13	49	976.0	819.2537	-1	87	0	1
2	13	50	959.0	883.0731	-1	87	0	1
2	13	51	1096.0	947.472	-1	87	0	1
2	13	52	1039.0	1009.029	-1	87	0	1
2	13	53	1106.0	1055.005	-1	87	0	1
2	13	54	935.0	1076.668	-1	87	0	1
2	13	55	760.0	1077.068	-1	87	0	1
2	13	56	913.0	1062.669	-1	87	0	1
2	13	57	1024.0	1049.18	-1	87	0	1
2	13	58	987.0	1037.699	-1	87	0	1
2	13	59	1100.0	1030.967	-1	87	0	1
2	13	60	1262.0	1029.727	-1	87	0	1
2	13	61	1470.0	1033.811	-1	87	0	1
2	13	62	1592.0	1041.967	-1	87	0	1
2	13	63	1688.0	1051.524	-1	87	0	1
2	13	64	1760.0	1059.376	-1	87	0	1
2	13	65	1910.0	1066.084	-1	87	0	1
2	13	66	1968.0	1068.623	-1	87	0	1
2	13	67	2041.0	1063.105	-1	87	0	1
2	13	68	2090.0	1054.715	-1	87	0	1
2	13	69	2194.0	1040.951	-1	87	0	1
2	13	70	2084.0	1019.484	-1	87	0	1
2	13	71	1953.0	991.5726	-1	87	0	1
2	13	72	1944.0	958.7353	-1	87	0	1
2	13	73	2012.0	923.838	-1	87	0	1
2	13	74	2137.0	893.7909	-1	87	0	1
2	13	75	1982.0	875.1513	-1	87	0	1
2	13	76	2042.0	865.8976	-1	87	0	1
2	13	77	2075.0	865.9586	-1	87	0	1
2	13	78	2094.0	862.4465	-1	87	0	1
2	13	79	2135.0	856.7052	-1	87	0	1
2	13	80	2063.0	850.0703	-1	87	0	1
2	14	1	1402.0	993.5029	-1	103	0	1
2	14	2	1368.0	989.9132	-1	103	0	1
2	14	3	1320.0	981.8454	-1	103	0	1
2	14	4	1316.0	968.7279	-1	103	0	1
2	14	5	1251.0	951.2042	-1	103	0	1
2	14	6	1221.0	928.5231	-1	103	0	1
2	14	7	1204.0	902.7642	-1	103	0	1
2	14	8	1244.0	876.9496	-1	103	0	1
2	14	9	1206.0	851.0917	-1	103	0	1
2	14	10	1008.0	828.2062	-1	103	0	1
2	14	11	1009.0	812.7564	-1	103	0	1
2	14	12	1068.0	810.4068	-1	103	0	1
2	14	13	1082.0	825.5882	-1	103	0	1
2	14	14	1058.0	846.0955	-1	103	0	1
2	14	15	926.0	865.3782	-1	103	0	1
2	14	16	816.0	883.9046	-1	103	0	1
2	14	17	780.0	900.9542	-1	103	0	1
1	14	18	717.0	1077.1	-1	72	0	1
1	14	19	652.0	1089.02	-1	72	0	1
1	14	20	559.0	1102.895	-1	72	0	1
1	14	21	488.0	1117.937	-1	72	0	1
1	14	22	469.0	1031.41	-1	72	0	1
1	14	23	456.0	1025.339	-1	72	0	1
1	14	24	449.0	1014.742	-1	72	0	1
1	14	25	444.0	992.9348	-1	5	0	1
1	14	26	440.0	963.7857	-1	3	0	1
1	14	27	442.0	929.3124	-1	3	0	1
1	14	28	443.0	893.0551	-1	72	0	1
1	14	29	443.0	858.0041	-1	3	0	1
1	14	30	443.0	827.2483	-1	3	0	1
1	14	31	443.0	811.6332	-1	3	0	1
1	14	32	445.0	810.2729	-1	72	0	1
1	14	35	446.0	927.6191	-1	72	0	1
1	14	36	449.0	991.6863	-1	72	0	1
1	14	37	455.0	1057.453	-1	2	0	1
1	14	38	462.0	1120.496	-1	72	0	1
1	14	39	481.0	1176.935	-1	76	0	1
2	14	40	589.0	882.6418	-1	87	0	1
2	14	41	681.0	848.9094	-1	87	0	1
2	14	42	620.0	813.1137	-1	87	0	1
2	14	43	695.0	777.5998	-1	87	0	1
2	14	44	666.0	745.3083	-1	102	0	1
2	14	45	714.0	730.0828	-1	102	0	1
2	14	46	828.0	733.3493	-1	102	0	1
2	14	47	917.0	754.0	-1	102	0	1
2	14	48	1060.0	789.9469	-1	87	0	1
2	14	49	1204.0	837.9538	-1	87	0	1
2	14	50	1119.0	890.7277	-1	87	0	1
2	14	51	1313.0	944.8018	-1	87	0	1
2	14	52	1315.0	994.4495	-1	87	0	1
2	14	53	1254.0	1031.932	-1	87	0	1
2	14	54	1183.0	1053.228	-1	87	0	1
2	14	55	917.0	1059.683	-1	87	0	1
2	14	56	793.0	1051.374	-1	87	0	1
2	14	57	858.0	1039.083	-1	87	0	1
2	14	58	951.0	1029.926	-1	87	0	1
2	14	59	1076.0	1026.617	-1	87	0	1
2	14	60	1217.0	1029.695	-1	87	0	1
2	14	61	1398.0	1039.778	-1	87	0	1
2	14	62	1441.0	1055.891	-1	87	0	1
2	14	63	1555.0	1076.003	-1	87	0	1
2	14	64	1720.0	1096.84	-1	87	0	1
2	14	65	1858.0	1117.996	-1	87	0	1
2	14	66	1926.0	1130.752	-1	87	0	1
2	14	67	1934.0	1134.511	-1	87	0	1
2	14	68	2004.0	1129.373	-1	87	0	1
2	14	69	2110.0	1115.618	-1	87	0	1
2	14	70	2007.0	1093.885	-1	87	0	1
2	14	71	1907.0	1067.91	-1	87	0	1
2	14	72	1768.0	1040.743	-1	87	0	1
2	14	73	1870.0	1009.74	-1	87	0	1
2	14	74	1918.0	978.7696	-1	87	0	1
2	14	75	1859.0	950.3062	-1	87	0	1
2	14	76	2005.0	924.3296	-1	87	0	1
2	14	77	1964.0	906.188	-1	87	0	1
2	14	78	1922.0	889.2837	-1	87	0	1
2	14	79	1999.0	872.4175	-1	87	0	1
2	14	80	2030.0	857.8265	-1	87	0	1
2	15	1	1378.0	1017.596	-1	103	0	1
2	15	2	1327.0	1018.722	-1	103	0	1
2	15	3	1292.0	1013.786	-1	103	0	1
2	15	4	1249.0	1003.855	-1	103	0	1
2	15	5	1240.0	987.3761	-1	103	0	1
2	15	6	1254.0	964.4729	-1	103	0	1
2	15	7	1203.0	938.5765	-1	103	0	1
2	15	8	1154.0	913.6371	-1	103	0	1
2	15	9	1110.0	891.3616	-1	103	0	1
2	15	10	1164.0	870.944	-1	103	0	1
2	15	11	1136.0	855.7724	-1	103	0	1
2	15	12	1180.0	851.487	-1	103	0	1
2	15	13	1194.0	863.3409	-1	103	0	1
2	15	14	1150.0	879.8591	-1	103	0	1
2	15	15	1064.0	895.8511	-1	103	0	1
2	15	16	1019.0	911.0177	-1	103	0	1
2	15	17	959.0	924.9798	-1	103	0	1
2	15	18	795.0	937.6067	-1	103	0	1
1	15	19	609.0	1059.213	-1	72	0	1
1	15	20	559.0	1079.428	-1	72	0	1
1	15	21	537.0	1101.575	-1	72	0	1
1	15	22	498.0	1123.597	-1	72	0	1
1	15	23	458.0	986.707	-1	72	0	1
1	15	24	449.0	972.098	-1	5	0	1
1	15	25	441.0	950.6306	-1	5	0	1
1	15	26	437.0	926.6606	-1	3	0	1
1	15	27	434.0	900.1165	-1	72	0	1
1	15	28	436.0	872.1111	-1	72	0	1
1	15	29	438.0	844.3798	-1	72	0	1
1	15	30	438.0	819.4387	-1	3	0	1
1	15	31	438.0	809.0897	-1	72	0	1
1	15	32	440.0	812.3778	-1	72	0	1
1	15	34	443.0	872.6867	-1	72	0	1
1	15	35	446.0	932.7955	-1	2	0	1
1	15	36	448.0	1000.321	-1	2	0	1
1	15	37	453.0	1071.421	-1	2	0	1
1	15	38	458.0	1140.472	-1	76	0	1
1	15	39	462.0	1200.822	-1	2	0	1
1	15	40	504.0	1250.376	-1	76	0	1
2	15	41	601.0	861.8315	-1	102	0	1
2	15	42	653.0	833.0331	-1	87	0	1
2	15	43	615.0	804.6704	-1	87	0	1
2	15	44	665.0	779.304	-1	102	0	1
2	15	45	792.0	767.9009	-1	102	0	1
2	15	46	918.0	772.988	-1	102	0	1
2	15	47	1078.0	791.061	-1	102	0	1
2	15	48	1187.0	820.2748	-1	102	0	1
2	15	49	1372.0	859.2209	-1	87	0	1
2	15	50	1344.0	902.5278	-1	87	0	1
2	15	51	1516.0	947.1381	-1	87	0	1
2	15	52	1525.0	988.0716	-1	87	0	1
2	15	53	1438.0	1019.461	-1	87	0	1
2	15	54	1267.0	1038.407	-1	87	0	1
2	15	55	1096.0	1045.412	-1	87	0	1
2	15	56	908.0	1039.751	-1	87	0	1
2	15	57	840.0	1029.015	-1	87	0	1
2	15	58	1077.0	1019.908	-1	87	0	1
2	15	59	1147.0	1018.44	-1	87	0	1
2	15	60	1286.0	1025.365	-1	87	0	1
2	15	61	1368.0	1042.27	-1	87	0	1
2	15	62	1492.0	1068.39	-1	87	0	1
2	15	63	1614.0	1100.861	-1	87	0	1
2	15	64	1666.0	1136.737	-1	87	0	1
2	15	65	1792.0	1174.13	-1	87	0	1
2	15	66	1819.0	1201.937	-1	87	0	1
2	15	67	1865.0	1216.631	-1	87	0	1
2	15	68	1895.0	1215.025	-1	87	0	1
2	15	69	1950.0	1200.184	-1	87	0	1
2	15	70	1945.0	1176.545	-1	87	0	1
2	15	71	1833.0	1151.852	-1	87	0	1
2	15	72	1685.0	1129.774	-1	87	0	1
2	15	73	1661.0	1102.851	-1	87	0	1
2	15	74	1772.0	1069.698	-1	87	0	1
2	15	75	1875.0	1030.994	-1	87	0	1
2	15	76	1936.0	989.1908	-1	87	0	1
2	15	77	1882.0	952.5746	-1	87	0	1
2	15	78	1864.0	919.1074	-1	87	0	1
2	15	79	1987.0	889.2522	-1	87	0	1
2	15	80	2103.0	864.6532	-1	87	0	1
2	15	81	2065.0	847.0555	-1	87	0	1
2	15	82	2035.0	837.212	-1	87	0	1
2	16	1	1366.0	1048.316	-1	103	0	1