#Drain Returnflow									
BEGIN OPTIONS									
     RETURNFLOW									
#    PRINTFILE  89									
#    DBFILE    ./Output/DRT_Output.txt									
     NOPRINT									
END OPTIONS									
17709 50 0 0
17709 0
1	1	28	553.0	125000	-1	72	0	1
2	1	29	568.0	100	-1	72	0	1
2	1	30	575.0	100	-1	76	0	1
2	1	31	603.0	100	-1	76	0	1
2	1	32	625.0	100	-1	94	0	1
2	1	33	716.0	100	-1	135	0	1
2	1	34	721.0	100	-1	135	0	1
2	1	35	806.0	100	-1	135	0	1
2	1	36	839.0	100	-1	135	0	1
2	1	37	886.0	100	-1	135	0	1
2	1	38	1061.0	100	-1	135	0	1
2	1	39	1238.0	100	-1	135	0	1
2	1	40	1343.0	100	-1	82	0	1
2	1	41	1264.0	100	-1	82	0	1
2	1	42	1421.0	100	-1	82	0	1
2	1	43	1582.0	100	-1	82	0	1
2	1	44	1773.0	100	-1	87	0	1
2	1	45	2007.0	100	-1	87	0	1
2	1	46	1922.0	100	-1	87	0	1
2	1	47	1844.0	100	-1	87	0	1
2	1	48	1964.0	100	-1	87	0	1
2	1	49	1810.0	100	-1	87	0	1
2	1	50	1603.0	100	-1	87	0	1
2	1	51	1496.0	100	-1	87	0	1
2	1	52	1410.0	100	-1	87	0	1
2	1	53	1450.0	100	-1	87	0	1
2	1	54	1521.0	100	-1	87	0	1
2	1	55	1696.0	100	-1	87	0	1
2	1	56	1862.0	100	-1	87	0	1
2	1	57	1975.0	100	-1	87	0	1
2	1	58	1980.0	100	-1	87	0	1
2	1	59	1905.0	100	-1	87	0	1
2	1	60	1827.0	100	-1	87	0	1
2	1	61	1678.0	100	-1	87	0	1
2	1	62	1638.0	100	-1	87	0	1
2	1	63	1651.0	100	-1	87	0	1
2	1	64	1870.0	100	-1	87	0	1
2	1	65	2063.0	100	-1	87	0	1
2	1	66	2252.0	100	-1	87	0	1
2	1	67	2392.0	100	-1	87	0	1
2	1	68	2468.0	100	-1	87	0	1
2	1	69	2550.0	100	-1	87	0	1
2	1	70	2447.0	100	-1	87	0	1
2	1	71	2452.0	100	-1	87	0	1
2	1	72	2550.0	100	-1	87	0	1
2	1	73	2506.0	100	-1	87	0	1
1	2	27	531.0	125000	-1	72	0	1
1	2	28	544.0	125000	-1	72	0	1
1	2	29	550.0	125000	-1	72	0	1
1	2	30	558.0	125000	-1	1	0	1
1	2	31	572.0	125000	-1	1	0	1
2	2	32	576.0	100	-1	76	0	1
2	2	33	625.0	100	-1	76	0	1
2	2	34	649.0	100	-1	135	0	1
2	2	35	708.0	100	-1	135	0	1
2	2	36	788.0	100	-1	135	0	1
2	2	37	916.0	100	-1	135	0	1
2	2	38	1025.0	100	-1	135	0	1
2	2	39	1092.0	100	-1	135	0	1
2	2	40	1166.0	100	-1	82	0	1
2	2	41	1210.0	100	-1	82	0	1
2	2	42	1398.0	100	-1	82	0	1
2	2	43	1521.0	100	-1	82	0	1
2	2	44	1714.0	100	-1	87	0	1
2	2	45	1756.0	100	-1	87	0	1
2	2	46	1692.0	100	-1	87	0	1
2	2	47	1645.0	100	-1	87	0	1
2	2	48	1762.0	100	-1	87	0	1
2	2	49	1710.0	100	-1	87	0	1
2	2	50	1530.0	100	-1	87	0	1
2	2	51	1407.0	100	-1	87	0	1
2	2	52	1360.0	100	-1	87	0	1
2	2	53	1424.0	100	-1	87	0	1
2	2	54	1577.0	100	-1	87	0	1
2	2	55	1719.0	100	-1	87	0	1
2	2	56	1784.0	100	-1	87	0	1
2	2	57	1912.0	100	-1	87	0	1
2	2	58	1931.0	100	-1	87	0	1
2	2	59	1810.0	100	-1	87	0	1
2	2	60	1756.0	100	-1	87	0	1
2	2	61	1566.0	100	-1	87	0	1
2	2	62	1685.0	100	-1	87	0	1
2	2	63	1831.0	100	-1	87	0	1
2	2	64	1961.0	100	-1	87	0	1
2	2	65	2007.0	100	-1	87	0	1
2	2	66	2179.0	100	-1	87	0	1
2	2	67	2325.0	100	-1	87	0	1
2	2	68	2444.0	100	-1	87	0	1
2	2	69	2562.0	100	-1	87	0	1
2	2	70	2561.0	100	-1	87	0	1
2	2	71	2481.0	100	-1	87	0	1
2	2	72	2513.0	100	-1	87	0	1
1	3	27	518.0	125000	-1	72	0	1
1	3	28	528.0	125000	-1	72	0	1
1	3	29	540.0	125000	-1	1	0	1
1	3	30	547.0	125000	-1	1	0	1
1	3	31	550.0	125000	-1	1	0	1
1	3	32	560.0	125000	-1	76	0	1
1	3	33	585.0	125000	-1	76	0	1
2	3	34	643.0	100	-1	135	0	1
2	3	35	660.0	100	-1	135	0	1
2	3	36	735.0	100	-1	135	0	1
2	3	37	767.0	100	-1	135	0	1
2	3	38	908.0	100	-1	135	0	1
2	3	39	1055.0	100	-1	82	0	1
2	3	40	1045.0	100	-1	82	0	1
2	3	41	1155.0	100	-1	82	0	1
2	3	42	1435.0	100	-1	82	0	1
2	3	43	1557.0	100	-1	87	0	1
2	3	44	1532.0	100	-1	87	0	1
2	3	45	1498.0	100	-1	87	0	1
2	3	46	1442.0	100	-1	87	0	1
2	3	47	1408.0	100	-1	87	0	1
2	3	48	1656.0	100	-1	87	0	1
2	3	49	1637.0	100	-1	87	0	1
2	3	50	1466.0	100	-1	87	0	1
2	3	51	1302.0	100	-1	87	0	1
2	3	52	1291.0	100	-1	87	0	1
2	3	53	1374.0	100	-1	87	0	1
2	3	54	1551.0	100	-1	87	0	1
2	3	55	1708.0	100	-1	87	0	1
2	3	56	1670.0	100	-1	87	0	1
2	3	57	1710.0	100	-1	87	0	1
2	3	58	1738.0	100	-1	87	0	1
2	3	59	1696.0	100	-1	87	0	1
2	3	60	1661.0	100	-1	87	0	1
2	3	61	1549.0	100	-1	87	0	1
2	3	62	1690.0	100	-1	87	0	1
2	3	63	1900.0	100	-1	87	0	1
2	3	64	2129.0	100	-1	87	0	1
2	3	65	2161.0	100	-1	87	0	1
2	3	66	2106.0	100	-1	87	0	1
2	3	67	2274.0	100	-1	87	0	1
2	3	68	2386.0	100	-1	87	0	1
2	3	69	2466.0	100	-1	87	0	1
2	3	70	2637.0	100	-1	87	0	1
2	3	71	2505.0	100	-1	87	0	1
1	4	26	503.0	125000	-1	72	0	1
1	4	27	510.0	125000	-1	72	0	1
1	4	28	515.0	125000	-1	72	0	1
1	4	29	524.0	125000	-1	1	0	1
1	4	30	531.0	125000	-1	1	0	1
1	4	31	536.0	125000	-1	1	0	1
1	4	32	548.0	125000	-1	1	0	1
1	4	33	566.0	125000	-1	76	0	1
2	4	34	698.0	100	-1	76	0	1
2	4	35	794.0	100	-1	135	0	1
2	4	36	836.0	100	-1	135	0	1
2	4	37	839.0	100	-1	135	0	1
2	4	38	980.0	100	-1	82	0	1
2	4	39	987.0	100	-1	82	0	1
2	4	40	977.0	100	-1	82	0	1
2	4	41	1144.0	100	-1	82	0	1
2	4	42	1285.0	100	-1	82	0	1
2	4	43	1394.0	100	-1	87	0	1
2	4	44	1368.0	100	-1	87	0	1
2	4	45	1323.0	100	-1	87	0	1
2	4	46	1357.0	100	-1	87	0	1
2	4	47	1230.0	100	-1	87	0	1
2	4	48	1424.0	100	-1	87	0	1
2	4	49	1529.0	100	-1	87	0	1
2	4	50	1372.0	100	-1	87	0	1
2	4	51	1214.0	100	-1	87	0	1
2	4	52	1211.0	100	-1	87	0	1
2	4	53	1263.0	100	-1	87	0	1
2	4	54	1482.0	100	-1	87	0	1
2	4	55	1584.0	100	-1	87	0	1
2	4	56	1489.0	100	-1	87	0	1
2	4	57	1523.0	100	-1	87	0	1
2	4	58	1548.0	100	-1	87	0	1
2	4	59	1528.0	100	-1	87	0	1
2	4	60	1495.0	100	-1	87	0	1
2	4	61	1493.0	100	-1	87	0	1
2	4	62	1673.0	100	-1	87	0	1
2	4	63	1864.0	100	-1	87	0	1
2	4	64	2071.0	100	-1	87	0	1
2	4	65	2263.0	100	-1	87	0	1
2	4	66	2251.0	100	-1	87	0	1
2	4	67	2266.0	100	-1	87	0	1
2	4	68	2425.0	100	-1	87	0	1
2	4	69	2486.0	100	-1	87	0	1
2	4	70	2638.0	100	-1	87	0	1
2	4	71	2601.0	100	-1	87	0	1
1	5	24	478.0	125000	-1	72	0	1
1	5	25	487.0	125000	-1	72	0	1
1	5	26	496.0	125000	-1	72	0	1
1	5	27	504.0	125000	-1	72	0	1
1	5	28	507.0	125000	-1	72	0	1
1	5	29	513.0	125000	-1	1	0	1
1	5	30	516.0	125000	-1	1	0	1
1	5	31	520.0	125000	-1	1	0	1
1	5	32	533.0	125000	-1	1	0	1
1	5	33	538.0	125000	-1	76	0	1
1	5	34	569.0	125000	-1	76	0	1
2	5	35	803.0	100	-1	76	0	1
2	5	36	854.0	100	-1	135	0	1
2	5	37	787.0	100	-1	82	0	1
2	5	38	867.0	100	-1	82	0	1
2	5	39	902.0	100	-1	82	0	1
2	5	40	1079.0	100	-1	82	0	1
2	5	41	1077.0	100	-1	82	0	1
2	5	42	1158.0	100	-1	82	0	1
2	5	43	1306.0	100	-1	87	0	1
2	5	44	1327.0	100	-1	87	0	1
2	5	45	1156.0	100	-1	87	0	1
2	5	46	1198.0	100	-1	87	0	1
2	5	47	1103.0	100	-1	87	0	1
2	5	48	1199.0	100	-1	87	0	1
2	5	49	1367.0	100	-1	87	0	1
2	5	50	1278.0	100	-1	87	0	1
2	5	51	1168.0	100	-1	87	0	1
2	5	52	1169.0	100	-1	87	0	1
2	5	53	1206.0	100	-1	87	0	1
2	5	54	1340.0	100	-1	87	0	1
2	5	55	1393.0	100	-1	87	0	1
2	5	56	1390.0	100	-1	87	0	1
2	5	57	1368.0	100	-1	87	0	1
2	5	58	1340.0	100	-1	87	0	1
2	5	59	1361.0	100	-1	87	0	1
2	5	60	1505.0	100	-1	87	0	1
2	5	61	1581.0	100	-1	87	0	1
2	5	62	1634.0	100	-1	87	0	1
2	5	63	1841.0	100	-1	87	0	1
2	5	64	2018.0	100	-1	87	0	1
2	5	65	2182.0	100	-1	87	0	1
2	5	66	2287.0	100	-1	87	0	1
2	5	67	2372.0	100	-1	87	0	1
2	5	68	2562.0	100	-1	87	0	1
2	5	69	2591.0	100	-1	87	0	1
2	5	70	2561.0	100	-1	87	0	1
2	5	71	2563.0	100	-1	87	0	1
1	6	22	459.0	125000	-1	72	0	1
1	6	23	467.0	125000	-1	72	0	1
1	6	24	474.0	125000	-1	72	0	1
1	6	25	481.0	125000	-1	72	0	1
1	6	26	487.0	125000	-1	72	0	1
1	6	27	493.0	125000	-1	72	0	1
1	6	28	499.0	125000	-1	1	0	1
1	6	29	501.0	125000	-1	1	0	1
1	6	30	505.0	125000	-1	1	0	1
1	6	31	509.0	125000	-1	1	0	1
1	6	32	516.0	125000	-1	1	0	1
1	6	33	516.0	125000	-1	76	0	1
1	6	34	541.0	125000	-1	76	0	1
1	6	35	622.0	125000	-1	76	0	1
2	6	36	688.0	100	-1	82	0	1
2	6	37	712.0	100	-1	82	0	1
2	6	38	734.0	100	-1	82	0	1
2	6	39	815.0	100	-1	82	0	1
2	6	40	964.0	100	-1	82	0	1
2	6	41	964.0	100	-1	82	0	1
2	6	42	1044.0	100	-1	82	0	1
2	6	43	1165.0	100	-1	82	0	1
2	6	44	1267.0	100	-1	87	0	1
2	6	45	1132.0	100	-1	87	0	1
2	6	46	1029.0	100	-1	87	0	1
2	6	47	967.0	100	-1	87	0	1
2	6	48	992.0	100	-1	87	0	1
2	6	49	1117.0	100	-1	87	0	1
2	6	50	1153.0	100	-1	87	0	1
2	6	51	1153.0	100	-1	87	0	1
2	6	52	1084.0	100	-1	87	0	1
2	6	53	1163.0	100	-1	87	0	1
2	6	54	1220.0	100	-1	87	0	1
2	6	55	1288.0	100	-1	87	0	1
2	6	56	1270.0	100	-1	87	0	1
2	6	57	1177.0	100	-1	87	0	1
2	6	58	1305.0	100	-1	87	0	1
2	6	59	1498.0	100	-1	87	0	1
2	6	60	1602.0	100	-1	87	0	1
2	6	61	1551.0	100	-1	87	0	1
2	6	62	1592.0	100	-1	87	0	1
2	6	63	1675.0	100	-1	87	0	1
2	6	64	1868.0	100	-1	87	0	1
2	6	65	1978.0	100	-1	87	0	1
2	6	66	2119.0	100	-1	87	0	1
2	6	67	2327.0	100	-1	87	0	1
2	6	68	2505.0	100	-1	87	0	1
2	6	69	2653.0	100	-1	87	0	1
2	6	70	2641.0	100	-1	87	0	1
1	7	17	727.0	125000	-1	72	0	1
1	7	18	622.0	125000	-1	72	0	1
1	7	19	516.0	125000	-1	72	0	1
1	7	20	488.0	125000	-1	72	0	1
1	7	21	473.0	125000	-1	72	0	1
1	7	22	460.0	125000	-1	72	0	1
1	7	23	465.0	125000	-1	72	0	1
1	7	24	471.0	125000	-1	72	0	1
1	7	25	477.0	125000	-1	72	0	1
1	7	26	480.0	125000	-1	72	0	1
1	7	27	483.0	125000	-1	72	0	1
1	7	28	489.0	125000	-1	1	0	1
1	7	29	492.0	125000	-1	1	0	1
1	7	30	495.0	125000	-1	1	0	1
1	7	31	498.0	125000	-1	1	0	1
1	7	32	501.0	125000	-1	1	0	1
1	7	33	501.0	125000	-1	76	0	1
1	7	34	509.0	125000	-1	76	0	1
1	7	35	544.0	125000	-1	76	0	1
2	7	36	632.0	100	-1	76	0	1
2	7	37	655.0	100	-1	82	0	1
2	7	38	693.0	100	-1	82	0	1
2	7	39	752.0	100	-1	82	0	1
2	7	40	816.0	100	-1	82	0	1
2	7	41	887.0	100	-1	82	0	1
2	7	42	1019.0	100	-1	82	0	1
2	7	43	1158.0	100	-1	87	0	1
2	7	44	1217.0	100	-1	87	0	1
2	7	45	1134.0	100	-1	87	0	1
2	7	46	1072.0	100	-1	87	0	1
2	7	47	929.0	100	-1	87	0	1
2	7	48	819.0	100	-1	87	0	1
2	7	49	878.0	100	-1	87	0	1
2	7	50	1119.0	100	-1	87	0	1
2	7	51	1098.0	100	-1	87	0	1
2	7	52	1028.0	100	-1	87	0	1
2	7	53	1104.0	100	-1	87	0	1
2	7	54	1104.0	100	-1	87	0	1
2	7	55	1100.0	100	-1	87	0	1
2	7	56	1116.0	100	-1	87	0	1
2	7	57	1118.0	100	-1	87	0	1
2	7	58	1322.0	100	-1	87	0	1
2	7	59	1427.0	100	-1	87	0	1
2	7	60	1499.0	100	-1	87	0	1
2	7	61	1491.0	100	-1	87	0	1
2	7	62	1639.0	100	-1	87	0	1
2	7	63	1692.0	100	-1	87	0	1
2	7	64	1795.0	100	-1	87	0	1
2	7	65	1897.0	100	-1	87	0	1
2	7	66	2089.0	100	-1	87	0	1
2	7	67	2179.0	100	-1	87	0	1
2	7	68	2430.0	100	-1	87	0	1
2	7	69	2633.0	100	-1	87	0	1
2	7	70	2620.0	100	-1	87	0	1
2	7	71	2573.0	100	-1	87	0	1
2	8	15	845.0	100	-1	103	0	1
1	8	16	800.0	125000	-1	72	0	1
1	8	17	772.0	125000	-1	72	0	1
1	8	18	662.0	125000	-1	72	0	1
1	8	19	535.0	125000	-1	72	0	1
1	8	20	495.0	125000	-1	72	0	1
1	8	21	475.0	125000	-1	72	0	1
1	8	22	462.0	125000	-1	72	0	1
1	8	23	464.0	125000	-1	72	0	1
1	8	24	468.0	125000	-1	72	0	1
1	8	25	472.0	125000	-1	72	0	1
1	8	26	473.0	125000	-1	72	0	1
1	8	27	474.0	125000	-1	72	0	1
1	8	28	479.0	125000	-1	72	0	1
1	8	29	484.0	125000	-1	1	0	1
1	8	30	490.0	125000	-1	1	0	1
1	8	31	490.0	125000	-1	1	0	1
1	8	32	490.0	125000	-1	72	0	1
1	8	33	493.0	125000	-1	72	0	1
1	8	34	510.0	125000	-1	76	0	1
1	8	35	532.0	125000	-1	76	0	1
1	8	36	550.0	125000	-1	76	0	1
2	8	37	633.0	100	-1	76	0	1
2	8	38	701.0	100	-1	82	0	1
2	8	39	729.0	100	-1	82	0	1
2	8	40	769.0	100	-1	82	0	1
2	8	41	895.0	100	-1	82	0	1
2	8	42	1058.0	100	-1	87	0	1
2	8	43	1152.0	100	-1	87	0	1
2	8	44	1128.0	100	-1	87	0	1
2	8	45	1075.0	100	-1	87	0	1
2	8	46	973.0	100	-1	87	0	1
2	8	47	872.0	100	-1	87	0	1
2	8	48	713.0	100	-1	87	0	1
2	8	49	823.0	100	-1	87	0	1
2	8	50	955.0	100	-1	87	0	1
2	8	51	932.0	100	-1	87	0	1
2	8	52	908.0	100	-1	87	0	1
2	8	53	1033.0	100	-1	87	0	1
2	8	54	1000.0	100	-1	87	0	1
2	8	55	920.0	100	-1	87	0	1
2	8	56	1024.0	100	-1	87	0	1
2	8	57	1174.0	100	-1	87	0	1
2	8	58	1285.0	100	-1	87	0	1
2	8	59	1390.0	100	-1	87	0	1
2	8	60	1399.0	100	-1	87	0	1
2	8	61	1460.0	100	-1	87	0	1
2	8	62	1622.0	100	-1	87	0	1
2	8	63	1691.0	100	-1	87	0	1
2	8	64	1785.0	100	-1	87	0	1
2	8	65	1968.0	100	-1	87	0	1
2	8	66	2190.0	100	-1	87	0	1
2	8	67	2294.0	100	-1	87	0	1
2	8	68	2408.0	100	-1	87	0	1
2	8	69	2522.0	100	-1	87	0	1
2	8	70	2483.0	100	-1	87	0	1
2	8	71	2483.0	100	-1	87	0	1
2	8	72	2456.0	100	-1	87	0	1
2	9	12	983.0	100	-1	103	0	1
2	9	13	933.0	100	-1	103	0	1
2	9	14	913.0	100	-1	103	0	1
2	9	15	868.0	100	-1	103	0	1
2	9	16	869.0	100	-1	72	0	1
1	9	17	805.0	125000	-1	72	0	1
1	9	18	694.0	125000	-1	72	0	1
1	9	19	559.0	125000	-1	72	0	1
1	9	20	504.0	125000	-1	72	0	1
1	9	21	477.0	125000	-1	72	0	1
1	9	22	461.0	125000	-1	72	0	1
1	9	23	460.0	125000	-1	72	0	1
1	9	24	465.0	125000	-1	72	0	1
1	9	25	467.0	125000	-1	72	0	1
1	9	26	467.0	125000	-1	72	0	1
1	9	27	468.0	125000	-1	72	0	1
1	9	28	469.0	125000	-1	72	0	1
1	9	29	476.0	125000	-1	1	0	1
1	9	30	481.0	125000	-1	72	0	1
1	9	31	483.0	125000	-1	72	0	1
1	9	32	484.0	125000	-1	72	0	1
1	9	33	482.0	125000	-1	72	0	1
1	9	34	500.0	125000	-1	72	0	1
1	9	35	522.0	125000	-1	76	0	1
1	9	36	535.0	125000	-1	76	0	1
1	9	37	633.0	125000	-1	76	0	1
2	9	38	725.0	100	-1	87	0	1
2	9	39	729.0	100	-1	87	0	1
2	9	40	756.0	100	-1	87	0	1
2	9	41	830.0	100	-1	87	0	1
2	9	42	897.0	100	-1	87	0	1
2	9	43	968.0	100	-1	87	0	1
2	9	44	982.0	100	-1	87	0	1
2	9	45	975.0	100	-1	87	0	1
2	9	46	871.0	100	-1	87	0	1
2	9	47	693.0	100	-1	87	0	1
2	9	48	627.0	100	-1	87	0	1
2	9	49	696.0	100	-1	87	0	1
2	9	50	678.0	100	-1	87	0	1
2	9	51	786.0	100	-1	87	0	1
2	9	52	911.0	100	-1	87	0	1
2	9	53	977.0	100	-1	87	0	1
2	9	54	818.0	100	-1	87	0	1
2	9	55	927.0	100	-1	87	0	1
2	9	56	1018.0	100	-1	87	0	1
2	9	57	1138.0	100	-1	87	0	1
2	9	58	1212.0	100	-1	87	0	1
2	9	59	1281.0	100	-1	87	0	1
2	9	60	1395.0	100	-1	87	0	1
2	9	61	1533.0	100	-1	87	0	1
2	9	62	1555.0	100	-1	87	0	1
2	9	63	1609.0	100	-1	87	0	1
2	9	64	1780.0	100	-1	87	0	1
2	9	65	2029.0	100	-1	87	0	1
2	9	66	2237.0	100	-1	87	0	1
2	9	67	2404.0	100	-1	87	0	1
2	9	68	2439.0	100	-1	87	0	1
2	9	69	2321.0	100	-1	87	0	1
2	9	70	2400.0	100	-1	87	0	1
2	9	71	2380.0	100	-1	87	0	1
2	9	72	2362.0	100	-1	87	0	1
2	9	73	2395.0	100	-1	87	0	1
2	10	9	1201.0	100	-1	103	0	1
2	10	10	1167.0	100	-1	103	0	1
2	10	11	1014.0	100	-1	103	0	1
2	10	12	989.0	100	-1	103	0	1
2	10	13	930.0	100	-1	103	0	1
2	10	14	872.0	100	-1	103	0	1
2	10	15	848.0	100	-1	103	0	1
2	10	16	791.0	100	-1	103	0	1
2	10	17	730.0	100	-1	72	0	1
1	10	18	716.0	125000	-1	72	0	1
1	10	19	613.0	125000	-1	72	0	1
1	10	20	507.0	125000	-1	72	0	1
1	10	21	479.0	125000	-1	72	0	1
1	10	22	466.0	125000	-1	72	0	1
1	10	23	456.0	125000	-1	72	0	1
1	10	24	459.0	125000	-1	72	0	1
1	10	25	461.0	125000	-1	72	0	1
1	10	26	462.0	125000	-1	72	0	1
1	10	27	464.0	125000	-1	72	0	1
1	10	28	464.0	125000	-1	72	0	1
1	10	29	467.0	125000	-1	72	0	1
1	10	30	472.0	125000	-1	72	0	1
1	10	31	475.0	125000	-1	72	0	1
1	10	32	474.0	125000	-1	72	0	1
1	10	33	471.0	125000	-1	72	0	1
1	10	34	486.0	125000	-1	72	0	1
1	10	35	501.0	125000	-1	76	0	1
1	10	36	511.0	125000	-1	76	0	1
1	10	37	575.0	125000	-1	76	0	1
2	10	38	633.0	100	-1	87	0	1
2	10	39	674.0	100	-1	87	0	1
2	10	40	740.0	100	-1	87	0	1
2	10	41	770.0	100	-1	87	0	1
2	10	42	712.0	100	-1	87	0	1
2	10	43	783.0	100	-1	87	0	1
2	10	44	728.0	100	-1	87	0	1
2	10	45	790.0	100	-1	87	0	1
2	10	46	643.0	100	-1	87	0	1
2	10	47	563.0	100	-1	87	0	1
2	10	48	661.0	100	-1	87	0	1
2	10	49	580.0	100	-1	87	0	1
2	10	50	673.0	100	-1	87	0	1
2	10	51	790.0	100	-1	87	0	1
2	10	52	824.0	100	-1	87	0	1
2	10	53	847.0	100	-1	87	0	1
2	10	54	766.0	100	-1	87	0	1
2	10	55	966.0	100	-1	87	0	1
2	10	56	1029.0	100	-1	87	0	1
2	10	57	1166.0	100	-1	87	0	1
2	10	58	1216.0	100	-1	87	0	1
2	10	59	1291.0	100	-1	87	0	1
2	10	60	1362.0	100	-1	87	0	1
2	10	61	1488.0	100	-1	87	0	1
2	10	62	1492.0	100	-1	87	0	1
2	10	63	1573.0	100	-1	87	0	1
2	10	64	1798.0	100	-1	87	0	1
2	10	65	2010.0	100	-1	87	0	1
2	10	66	2252.0	100	-1	87	0	1
2	10	67	2505.0	100	-1	87	0	1
2	10	68	2464.0	100	-1	87	0	1
2	10	69	2324.0	100	-1	87	0	1
2	10	70	2202.0	100	-1	87	0	1
2	10	71	2316.0	100	-1	87	0	1
2	10	72	2284.0	100	-1	87	0	1
2	10	73	2331.0	100	-1	87	0	1
2	10	74	2346.0	100	-1	87	0	1
2	10	75	2276.0	100	-1	87	0	1
2	10	76	2152.0	100	-1	87	0	1
2	11	5	1291.0	100	-1	103	0	1
2	11	8	1291.0	100	-1	103	0	1
2	11	9	1268.0	100	-1	103	0	1
2	11	10	1185.0	100	-1	103	0	1
2	11	11	972.0	100	-1	103	0	1
2	11	12	942.0	100	-1	103	0	1
2	11	13	948.0	100	-1	103	0	1
2	11	14	847.0	100	-1	103	0	1
2	11	15	804.0	100	-1	103	0	1
2	11	16	783.0	100	-1	103	0	1
2	11	17	675.0	100	-1	72	0	1
1	11	18	586.0	125000	-1	72	0	1
1	11	19	568.0	125000	-1	72	0	1
1	11	20	511.0	125000	-1	72	0	1
1	11	21	485.0	125000	-1	72	0	1
1	11	22	470.0	125000	-1	72	0	1
1	11	23	458.0	125000	-1	72	0	1
1	11	24	455.0	125000	-1	72	0	1
1	11	25	455.0	125000	-1	72	0	1
1	11	26	456.0	125000	-1	72	0	1
1	11	27	456.0	125000	-1	72	0	1
1	11	28	457.0	125000	-1	72	0	1
1	11	29	460.0	125000	-1	3	0	1
1	11	30	463.0	125000	-1	3	0	1
1	11	31	465.0	125000	-1	3	0	1
1	11	32	465.0	125000	-1	72	0	1
1	11	33	465.0	125000	-1	72	0	1
1	11	34	471.0	125000	-1	72	0	1
1	11	35	484.0	125000	-1	72	0	1
1	11	36	496.0	125000	-1	2	0	1
1	11	37	502.0	125000	-1	76	0	1
2	11	38	503.0	100	-1	2	0	1
2	11	39	604.0	100	-1	87	0	1
2	11	40	639.0	100	-1	87	0	1
2	11	41	612.0	100	-1	87	0	1
2	11	42	585.0	100	-1	87	0	1
2	11	43	636.0	100	-1	87	0	1
2	11	44	590.0	100	-1	87	0	1
2	11	45	551.0	100	-1	87	0	1
2	11	46	556.0	100	-1	87	0	1
2	11	47	749.0	100	-1	87	0	1
2	11	48	849.0	100	-1	87	0	1
2	11	49	680.0	100	-1	87	0	1
2	11	50	620.0	100	-1	87	0	1
2	11	51	666.0	100	-1	87	0	1
2	11	52	660.0	100	-1	87	0	1
2	11	53	687.0	100	-1	87	0	1
2	11	54	753.0	100	-1	87	0	1
2	11	55	962.0	100	-1	87	0	1
2	11	56	1019.0	100	-1	87	0	1
2	11	57	1163.0	100	-1	87	0	1
2	11	58	1232.0	100	-1	87	0	1
2	11	59	1245.0	100	-1	87	0	1
2	11	60	1272.0	100	-1	87	0	1
2	11	61	1387.0	100	-1	87	0	1
2	11	62	1461.0	100	-1	87	0	1
2	11	63	1527.0	100	-1	87	0	1
2	11	64	1721.0	100	-1	87	0	1
2	11	65	2000.0	100	-1	87	0	1
2	11	66	2237.0	100	-1	87	0	1
2	11	67	2373.0	100	-1	87	0	1
2	11	68	2456.0	100	-1	87	0	1
2	11	69	2330.0	100	-1	87	0	1
2	11	70	2172.0	100	-1	87	0	1
2	11	71	2181.0	100	-1	87	0	1
2	11	72	2219.0	100	-1	87	0	1
2	11	73	2196.0	100	-1	87	0	1
2	11	74	2261.0	100	-1	87	0	1
2	11	75	2252.0	100	-1	87	0	1
2	11	76	2137.0	100	-1	87	0	1
2	11	77	2218.0	100	-1	87	0	1
2	11	78	2196.0	100	-1	87	0	1
2	12	3	1343.0	100	-1	103	0	1
2	12	4	1312.0	100	-1	103	0	1
2	12	5	1290.0	100	-1	103	0	1
2	12	6	1293.0	100	-1	103	0	1
2	12	7	1341.0	100	-1	103	0	1
2	12	8	1285.0	100	-1	103	0	1
2	12	9	1213.0	100	-1	103	0	1
2	12	10	1137.0	100	-1	103	0	1
2	12	11	960.0	100	-1	103	0	1
2	12	12	794.0	100	-1	103	0	1
2	12	13	774.0	100	-1	103	0	1
2	12	14	737.0	100	-1	103	0	1
2	12	15	716.0	100	-1	103	0	1
2	12	16	807.0	100	-1	103	0	1
2	12	17	759.0	100	-1	103	0	1
2	12	18	607.0	100	-1	72	0	1
1	12	19	516.0	125000	-1	72	0	1
1	12	20	497.0	125000	-1	72	0	1
1	12	21	489.0	125000	-1	72	0	1
1	12	22	477.0	125000	-1	72	0	1
1	12	23	461.0	125000	-1	72	0	1
1	12	24	452.0	125000	-1	72	0	1
1	12	25	448.0	125000	-1	72	0	1
1	12	26	450.0	125000	-1	72	0	1
1	12	27	452.0	125000	-1	3	0	1
1	12	28	452.0	125000	-1	3	0	1
1	12	29	453.0	125000	-1	72	0	1
1	12	30	455.0	125000	-1	3	0	1
1	12	31	456.0	125000	-1	3	0	1
1	12	32	455.0	125000	-1	72	0	1
1	12	33	458.0	125000	-1	72	0	1
1	12	34	461.0	125000	-1	72	0	1
1	12	35	467.0	125000	-1	2	0	1
1	12	36	476.0	125000	-1	2	0	1
1	12	37	476.0	125000	-1	2	0	1
1	12	38	476.0	125000	-1	2	0	1
2	12	39	476.0	100	-1	87	0	1
2	12	40	499.0	100	-1	87	0	1
2	12	41	496.0	100	-1	87	0	1
2	12	42	502.0	100	-1	87	0	1
2	12	43	535.0	100	-1	87	0	1
2	12	44	562.0	100	-1	87	0	1
2	12	45	649.0	100	-1	87	0	1
2	12	46	707.0	100	-1	87	0	1
2	12	47	767.0	100	-1	87	0	1
2	12	48	1024.0	100	-1	87	0	1
2	12	49	880.0	100	-1	87	0	1
2	12	50	827.0	100	-1	87	0	1
2	12	51	837.0	100	-1	87	0	1
2	12	52	813.0	100	-1	87	0	1
2	12	53	846.0	100	-1	87	0	1
2	12	54	698.0	100	-1	87	0	1
2	12	55	794.0	100	-1	87	0	1
2	12	56	931.0	100	-1	87	0	1
2	12	57	1114.0	100	-1	87	0	1
2	12	58	1116.0	100	-1	87	0	1
2	12	59	1156.0	100	-1	87	0	1
2	12	60	1283.0	100	-1	87	0	1
2	12	61	1422.0	100	-1	87	0	1
2	12	62	1472.0	100	-1	87	0	1
2	12	63	1566.0	100	-1	87	0	1
2	12	64	1737.0	100	-1	87	0	1
2	12	65	1966.0	100	-1	87	0	1
2	12	66	2088.0	100	-1	87	0	1
2	12	67	2165.0	100	-1	87	0	1
2	12	68	2296.0	100	-1	87	0	1
2	12	69	2236.0	100	-1	87	0	1
2	12	70	2080.0	100	-1	87	0	1
2	12	71	2066.0	100	-1	87	0	1
2	12	72	2121.0	100	-1	87	0	1
2	12	73	2080.0	100	-1	87	0	1
2	12	74	2266.0	100	-1	87	0	1
2	12	75	2147.0	100	-1	87	0	1
2	12	76	2020.0	100	-1	87	0	1
2	12	77	2168.0	100	-1	87	0	1
2	12	78	2128.0	100	-1	87	0	1
2	13	1	1480.0	100	-1	103	0	1
2	13	2	1386.0	100	-1	103	0	1
2	13	3	1329.0	100	-1	103	0	1
2	13	4	1316.0	100	-1	103	0	1
2	13	5	1303.0	100	-1	103	0	1
2	13	6	1250.0	100	-1	103	0	1
2	13	7	1230.0	100	-1	103	0	1
2	13	8	1206.0	100	-1	103	0	1
2	13	9	1186.0	100	-1	103	0	1
2	13	10	1062.0	100	-1	103	0	1
2	13	11	858.0	100	-1	103	0	1
2	13	12	911.0	100	-1	103	0	1
2	13	13	864.0	100	-1	103	0	1
2	13	14	851.0	100	-1	103	0	1
2	13	15	721.0	100	-1	103	0	1
2	13	16	658.0	100	-1	103	0	1
2	13	17	629.0	100	-1	103	0	1
2	13	18	571.0	100	-1	72	0	1
1	13	19	606.0	125000	-1	72	0	1
1	13	20	511.0	125000	-1	72	0	1
1	13	21	479.0	125000	-1	72	0	1
1	13	22	466.0	125000	-1	72	0	1
1	13	23	459.0	125000	-1	72	0	1
1	13	24	450.0	125000	-1	72	0	1
1	13	25	445.0	125000	-1	72	0	1
1	13	26	444.0	125000	-1	3	0	1
1	13	27	446.0	125000	-1	3	0	1
1	13	28	447.0	125000	-1	3	0	1
1	13	29	449.0	125000	-1	72	0	1
1	13	30	448.0	125000	-1	3	0	1
1	13	31	447.0	125000	-1	3	0	1
1	13	32	451.0	125000	-1	3	0	1
1	13	33	454.0	125000	-1	72	0	1
1	13	34	455.0	125000	-1	72	0	1
1	13	35	458.0	125000	-1	2	0	1
1	13	36	460.0	125000	-1	72	0	1
1	13	37	462.0	125000	-1	72	0	1
1	13	38	465.0	125000	-1	2	0	1
2	13	39	483.0	100	-1	76	0	1
2	13	40	527.0	100	-1	87	0	1
2	13	41	501.0	100	-1	87	0	1
2	13	42	560.0	100	-1	87	0	1
2	13	43	716.0	100	-1	87	0	1
2	13	44	731.0	100	-1	87	0	1
2	13	45	732.0	100	-1	87	0	1
2	13	46	866.0	100	-1	87	0	1
2	13	47	911.0	100	-1	87	0	1
2	13	48	1039.0	100	-1	87	0	1
2	13	49	976.0	100	-1	87	0	1
2	13	50	959.0	100	-1	87	0	1
2	13	51	1096.0	100	-1	87	0	1
2	13	52	1039.0	100	-1	87	0	1
2	13	53	1106.0	100	-1	87	0	1
2	13	54	935.0	100	-1	87	0	1
2	13	55	760.0	100	-1	87	0	1
2	13	56	913.0	100	-1	87	0	1
2	13	57	1024.0	100	-1	87	0	1
2	13	58	987.0	100	-1	87	0	1
2	13	59	1100.0	100	-1	87	0	1
2	13	60	1262.0	100	-1	87	0	1
2	13	61	1470.0	100	-1	87	0	1
2	13	62	1592.0	100	-1	87	0	1
2	13	63	1688.0	100	-1	87	0	1
2	13	64	1760.0	100	-1	87	0	1
2	13	65	1910.0	100	-1	87	0	1
2	13	66	1968.0	100	-1	87	0	1
2	13	67	2041.0	100	-1	87	0	1
2	13	68	2090.0	100	-1	87	0	1
2	13	69	2194.0	100	-1	87	0	1
2	13	70	2084.0	100	-1	87	0	1
2	13	71	1953.0	100	-1	87	0	1
2	13	72	1944.0	100	-1	87	0	1
2	13	73	2012.0	100	-1	87	0	1
2	13	74	2137.0	100	-1	87	0	1
2	13	75	1982.0	100	-1	87	0	1
2	13	76	2042.0	100	-1	87	0	1
2	13	77	2075.0	100	-1	87	0	1
2	13	78	2094.0	100	-1	87	0	1
2	13	79	2135.0	100	-1	87	0	1
2	13	80	2063.0	100	-1	87	0	1
2	14	1	1402.0	100	-1	103	0	1
2	14	2	1368.0	100	-1	103	0	1
2	14	3	1320.0	100	-1	103	0	1
2	14	4	1316.0	100	-1	103	0	1
2	14	5	1251.0	100	-1	103	0	1
2	14	6	1221.0	100	-1	103	0	1
2	14	7	1204.0	100	-1	103	0	1
2	14	8	1244.0	100	-1	103	0	1
2	14	9	1206.0	100	-1	103	0	1
2	14	10	1008.0	100	-1	103	0	1
2	14	11	1009.0	100	-1	103	0	1
2	14	12	1068.0	100	-1	103	0	1
2	14	13	1082.0	100	-1	103	0	1
2	14	14	1058.0	100	-1	103	0	1
2	14	15	926.0	100	-1	103	0	1
2	14	16	816.0	100	-1	103	0	1
2	14	17	780.0	100	-1	103	0	1
2	14	18	717.0	100	-1	72	0	1
1	14	19	652.0	125000	-1	72	0	1
1	14	20	559.0	125000	-1	72	0	1
1	14	21	488.0	125000	-1	72	0	1
1	14	22	469.0	125000	-1	72	0	1
1	14	23	456.0	125000	-1	72	0	1
1	14	24	449.0	125000	-1	72	0	1
1	14	25	444.0	125000	-1	5	0	1
1	14	26	440.0	125000	-1	3	0	1
1	14	27	442.0	125000	-1	3	0	1
1	14	28	443.0	125000	-1	72	0	1
1	14	29	443.0	125000	-1	3	0	1
1	14	30	443.0	125000	-1	3	0	1
1	14	31	443.0	125000	-1	3	0	1
1	14	32	445.0	125000	-1	72	0	1
1	14	33	448.0	125000	-1	72	0	1
1	14	34	449.0	125000	-1	72	0	1
1	14	35	446.0	125000	-1	72	0	1
1	14	36	449.0	125000	-1	72	0	1
1	14	37	455.0	125000	-1	2	0	1
1	14	38	462.0	125000	-1	72	0	1
1	14	39	481.0	125000	-1	76	0	1
2	14	40	589.0	100	-1	87	0	1
2	14	41	681.0	100	-1	87	0	1
2	14	42	620.0	100	-1	87	0	1
2	14	43	695.0	100	-1	87	0	1
2	14	44	666.0	100	-1	102	0	1
2	14	45	714.0	100	-1	102	0	1
2	14	46	828.0	100	-1	102	0	1
2	14	47	917.0	100	-1	102	0	1
2	14	48	1060.0	100	-1	87	0	1
2	14	49	1204.0	100	-1	87	0	1
2	14	50	1119.0	100	-1	87	0	1
2	14	51	1313.0	100	-1	87	0	1
2	14	52	1315.0	100	-1	87	0	1
2	14	53	1254.0	100	-1	87	0	1
2	14	54	1183.0	100	-1	87	0	1
2	14	55	917.0	100	-1	87	0	1
2	14	56	793.0	100	-1	87	0	1
2	14	57	858.0	100	-1	87	0	1
2	14	58	951.0	100	-1	87	0	1
2	14	59	1076.0	100	-1	87	0	1
2	14	60	1217.0	100	-1	87	0	1
2	14	61	1398.0	100	-1	87	0	1
2	14	62	1441.0	100	-1	87	0	1
2	14	63	1555.0	100	-1	87	0	1
2	14	64	1720.0	100	-1	87	0	1
2	14	65	1858.0	100	-1	87	0	1
2	14	66	1926.0	100	-1	87	0	1
2	14	67	1934.0	100	-1	87	0	1
2	14	68	2004.0	100	-1	87	0	1
2	14	69	2110.0	100	-1	87	0	1
2	14	70	2007.0	100	-1	87	0	1
2	14	71	1907.0	100	-1	87	0	1
2	14	72	1768.0	100	-1	87	0	1
2	14	73	1870.0	100	-1	87	0	1
2	14	74	1918.0	100	-1	87	0	1
2	14	75	1859.0	100	-1	87	0	1
2	14	76	2005.0	100	-1	87	0	1
2	14	77	1964.0	100	-1	87	0	1
2	14	78	1922.0	100	-1	87	0	1
2	14	79	1999.0	100	-1	87	0	1
2	14	80	2030.0	100	-1	87	0	1
2	15	1	1378.0	100	-1	103	0	1
2	15	2	1327.0	100	-1	103	0	1
2	15	3	1292.0	100	-1	103	0	1
2	15	4	1249.0	100	-1	103	0	1
2	15	5	1240.0	100	-1	103	0	1
2	15	6	1254.0	100	-1	103	0	1
2	15	7	1203.0	100	-1	103	0	1
2	15	8	1154.0	100	-1	103	0	1
2	15	9	1110.0	100	-1	103	0	1
2	15	10	1164.0	100	-1	103	0	1
2	15	11	1136.0	100	-1	103	0	1
2	15	12	1180.0	100	-1	103	0	1
2	15	13	1194.0	100	-1	103	0	1
2	15	14	1150.0	100	-1	103	0	1
2	15	15	1064.0	100	-1	103	0	1
2	15	16	1019.0	100	-1	103	0	1
2	15	17	959.0	100	-1	103	0	1
2	15	18	795.0	100	-1	103	0	1
2	15	19	609.0	100	-1	72	0	1
1	15	20	559.0	125000	-1	72	0	1
1	15	21	537.0	125000	-1	72	0	1
1	15	22	498.0	125000	-1	72	0	1
1	15	23	458.0	125000	-1	72	0	1
1	15	24	449.0	125000	-1	5	0	1
1	15	25	441.0	125000	-1	5	0	1
1	15	26	437.0	125000	-1	3	0	1
1	15	27	434.0	125000	-1	72	0	1
1	15	28	436.0	125000	-1	72	0	1
1	15	29	438.0	125000	-1	72	0	1
1	15	30	438.0	125000	-1	3	0	1
1	15	31	438.0	125000	-1	72	0	1
1	15	32	440.0	125000	-1	72	0	1
1	15	33	444.0	125000	-1	72	0	1
1	15	34	443.0	125000	-1	72	0	1
1	15	35	446.0	125000	-1	2	0	1
1	15	36	448.0	125000	-1	2	0	1
1	15	37	453.0	125000	-1	2	0	1
1	15	38	458.0	125000	-1	76	0	1
1	15	39	462.0	125000	-1	2	0	1
2	15	40	504.0	100	-1	76	0	1
2	15	41	601.0	100	-1	102	0	1
2	15	42	653.0	100	-1	87	0	1
2	15	43	615.0	100	-1	87	0	1
2	15	44	665.0	100	-1	102	0	1
2	15	45	792.0	100	-1	102	0	1
2	15	46	918.0	100	-1	102	0	1
2	15	47	1078.0	100	-1	102	0	1
2	15	48	1187.0	100	-1	102	0	1
2	15	49	1372.0	100	-1	87	0	1
2	15	50	1344.0	100	-1	87	0	1
2	15	51	1516.0	100	-1	87	0	1
2	15	52	1525.0	100	-1	87	0	1
2	15	53	1438.0	100	-1	87	0	1
2	15	54	1267.0	100	-1	87	0	1
2	15	55	1096.0	100	-1	87	0	1
2	15	56	908.0	100	-1	87	0	1
2	15	57	840.0	100	-1	87	0	1
2	15	58	1077.0	100	-1	87	0	1
2	15	59	1147.0	100	-1	87	0	1
2	15	60	1286.0	100	-1	87	0	1
2	15	61	1368.0	100	-1	87	0	1
2	15	62	1492.0	100	-1	87	0	1
2	15	63	1614.0	100	-1	87	0	1
2	15	64	1666.0	100	-1	87	0	1
2	15	65	1792.0	100	-1	87	0	1
2	15	66	1819.0	100	-1	87	0	1
2	15	67	1865.0	100	-1	87	0	1
2	15	68	1895.0	100	-1	87	0	1
2	15	69	1950.0	100	-1	87	0	1
2	15	70	1945.0	100	-1	87	0	1
2	15	71	1833.0	100	-1	87	0	1
2	15	72	1685.0	100	-1	87	0	1
2	15	73	1661.0	100	-1	87	0	1
2	15	74	1772.0	100	-1	87	0	1
2	15	75	1875.0	100	-1	87	0	1
2	15	76	1936.0	100	-1	87	0	1
2	15	77	1882.0	100	-1	87	0	1
2	15	78	1864.0	100	-1	87	0	1
2	15	79	1987.0	100	-1	87	0	1
2	15	80	2103.0	100	-1	87	0	1
2	15	81	2065.0	100	-1	87	0	1
2	15	82	2035.0	100	-1	87	0	1
2	16	1	1366.0	100	-1	103	0	1
2	16	2	1334.0	100	-1	103	0	1
2	16	3	1301.0	100	-1	103	0	1
2	16	4	1267.0	100	-1	103	0	1
2	16	5	1284.0	100	-1	103	0	1
2	16	6	1261.0	100	-1	92	0	1
2	16	7	1209.0	100	-1	92	0	1
2	16	8	1177.0	100	-1	103	0	1
2	16	9	1212.0	100	-1	92	0	1
2	16	10	1229.0	100	-1	92	0	1
2	16	11	1217.0	100	-1	92	0	1
2	16	12	1224.0	100	-1	103	0	1
2	16	13	1243.0	100	-1	103	0	1
2	16	14	1216.0	100	-1	103	0	1
2	16	15	1168.0	100	-1	103	0	1
2	16	16	1070.0	100	-1	103	0	1
2	16	17	932.0	100	-1	103	0	1
2	16	18	852.0	100	-1	103	0	1
2	16	19	682.0	100	-1	72	0	1
1	16	20	578.0	125000	-1	72	0	1
1	16	21	639.0	125000	-1	72	0	1
1	16	22	559.0	125000	-1	72	0	1
1	16	23	468.0	125000	-1	72	0	1
1	16	24	454.0	125000	-1	5	0	1
1	16	25	444.0	125000	-1	5	0	1
1	16	26	439.0	125000	-1	72	0	1
1	16	27	432.0	125000	-1	72	0	1
1	16	28	429.0	125000	-1	72	0	1
1	16	29	432.0	125000	-1	3	0	1
1	16	30	433.0	125000	-1	3	0	1
1	16	31	435.0	125000	-1	72	0	1
1	16	32	436.0	125000	-1	72	0	1
1	16	33	438.0	125000	-1	72	0	1
1	16	34	442.0	125000	-1	72	0	1
1	16	35	446.0	125000	-1	2	0	1
1	16	36	448.0	125000	-1	72	0	1
1	16	37	450.0	125000	-1	2	0	1
1	16	38	455.0	125000	-1	76	0	1
1	16	39	460.0	125000	-1	76	0	1
1	16	40	501.0	125000	-1	76	0	1
2	16	41	578.0	100	-1	76	0	1
2	16	42	577.0	100	-1	102	0	1
2	16	43	580.0	100	-1	102	0	1
2	16	44	697.0	100	-1	102	0	1
2	16	45	862.0	100	-1	102	0	1
2	16	46	974.0	100	-1	102	0	1
2	16	47	1137.0	100	-1	102	0	1
2	16	48	1337.0	100	-1	102	0	1
2	16	49	1539.0	100	-1	87	0	1
2	16	50	1633.0	100	-1	87	0	1
2	16	51	1775.0	100	-1	87	0	1
2	16	52	1702.0	100	-1	87	0	1
2	16	53	1524.0	100	-1	87	0	1
2	16	54	1465.0	100	-1	87	0	1
2	16	55	1379.0	100	-1	87	0	1
2	16	56	1135.0	100	-1	87	0	1
2	16	57	883.0	100	-1	87	0	1
2	16	58	985.0	100	-1	87	0	1
2	16	59	1104.0	100	-1	87	0	1
2	16	60	1262.0	100	-1	87	0	1
2	16	61	1306.0	100	-1	87	0	1
2	16	62	1401.0	100	-1	87	0	1
2	16	63	1541.0	100	-1	87	0	1
2	16	64	1558.0	100	-1	87	0	1
2	16	65	1593.0	100	-1	87	0	1
2	16	66	1707.0	100	-1	87	0	1
2	16	67	1751.0	100	-1	87	0	1
2	16	68	1771.0	100	-1	87	0	1
2	16	69	1785.0	100	-1	87	0	1
2	16	70	1876.0	100	-1	87	0	1
2	16	71	1726.0	100	-1	87	0	1
2	16	72	1603.0	100	-1	87	0	1
2	16	73	1517.0	100	-1	87	0	1
2	16	74	1622.0	100	-1	87	0	1
2	16	75	1752.0	100	-1	87	0	1
2	16	76	1850.0	100	-1	87	0	1
2	16	77	1782.0	100	-1	87	0	1
2	16	78	1910.0	100	-1	87	0	1
2	16	79	1954.0	100	-1	87	0	1
2	16	80	1993.0	100	-1	87	0	1
2	16	81	1975.0	100	-1	87	0	1
2	16	82	2053.0	100	-1	87	0	1
2	17	2	1312.0	100	-1	103	0	1
2	17	3	1310.0	100	-1	103	0	1
2	17	4	1303.0	100	-1	92	0	1
2	17	5	1293.0	100	-1	92	0	1
2	17	6	1255.0	100	-1	92	0	1
2	17	7	1204.0	100	-1	92	0	1
2	17	8	1192.0	100	-1	92	0	1
2	17	9	1209.0	100	-1	92	0	1
2	17	10	1215.0	100	-1	92	0	1
2	17	11	1229.0	100	-1	92	0	1
2	17	12	1231.0	100	-1	92	0	1
2	17	13	1242.0	100	-1	92	0	1
2	17	14	1297.0	100	-1	92	0	1
2	17	15	1273.0	100	-1	103	0	1
2	17	16	1156.0	100	-1	103	0	1
2	17	17	1002.0	100	-1	103	0	1
2	17	18	822.0	100	-1	72	0	1
2	17	19	721.0	100	-1	72	0	1
1	17	20	626.0	125000	-1	72	0	1
1	17	21	617.0	125000	-1	72	0	1
1	17	22	552.0	125000	-1	72	0	1
1	17	23	494.0	125000	-1	72	0	1
1	17	24	464.0	125000	-1	72	0	1
1	17	25	450.0	125000	-1	5	0	1
1	17	26	442.0	125000	-1	72	0	1
1	17	27	434.0	125000	-1	72	0	1
1	17	28	426.0	125000	-1	72	0	1
1	17	29	426.0	125000	-1	72	0	1
1	17	30	428.0	125000	-1	72	0	1
1	17	31	428.0	125000	-1	72	0	1
1	17	32	430.0	125000	-1	72	0	1
1	17	33	432.0	125000	-1	72	0	1
1	17	34	440.0	125000	-1	4	0	1
1	17	35	445.0	125000	-1	2	0	1
1	17	36	446.0	125000	-1	72	0	1
1	17	37	448.0	125000	-1	72	0	1