#Drain Returnflow
    BEGIN OPTIONS
         RETURNFLOW
    #    PRINTFILE  89
    #    DBFILE    ./Output/DRT_Output.txt
         NOPRINT
    END OPTIONS
    16911 50 0 0
16911 0
1	1	28	553.0	1049.4198976638013	-1	72	0	1
1	1	29	568.0	1067.721184013326	-1	72	0	1
1	1	30	575.0	1079.179283386089	-1	76	0	1
1	1	31	603.0	1081.7696371685706	-1	76	0	1
2	1	32	625.0	10000.0	-1	94	0	1
2	1	33	716.0	10000.0	-1	135	0	1
2	1	34	721.0	10000.0	-1	135	0	1
2	1	35	806.0	10000.0	-1	135	0	1
2	1	36	839.0	10000.0	-1	135	0	1
2	1	37	886.0	10000.0	-1	135	0	1
2	1	38	1061.0	10000.0	-1	135	0	1
2	1	39	1238.0	10000.0	-1	135	0	1
2	1	40	1343.0	10000.0	-1	82	0	1
2	1	41	1264.0	10000.0	-1	82	0	1
2	1	42	1421.0	10000.0	-1	82	0	1
2	1	43	1582.0	10000.0	-1	82	0	1
2	1	44	1773.0	10000.0	-1	87	0	1
2	1	45	2007.0	10000.0	-1	87	0	1
2	1	46	1922.0	10000.0	-1	87	0	1
2	1	47	1844.0	10000.0	-1	87	0	1
2	1	48	1964.0	10000.0	-1	87	0	1
2	1	49	1810.0	10000.0	-1	87	0	1
2	1	50	1603.0	10000.0	-1	87	0	1
2	1	51	1496.0	10000.0	-1	87	0	1
2	1	52	1410.0	10000.0	-1	87	0	1
2	1	53	1450.0	10000.0	-1	87	0	1
2	1	54	1521.0	10000.0	-1	87	0	1
2	1	55	1696.0	10000.0	-1	87	0	1
2	1	56	1862.0	10000.0	-1	87	0	1
2	1	57	1975.0	10000.0	-1	87	0	1
2	1	58	1980.0	10000.0	-1	87	0	1
2	1	59	1905.0	10000.0	-1	87	0	1
2	1	60	1827.0	10000.0	-1	87	0	1
2	1	61	1678.0	10000.0	-1	87	0	1
2	1	62	1638.0	10000.0	-1	87	0	1
2	1	63	1651.0	10000.0	-1	87	0	1
2	1	64	1870.0	10000.0	-1	87	0	1
2	1	65	2063.0	10000.0	-1	87	0	1
2	1	66	2252.0	10000.0	-1	87	0	1
2	1	67	2392.0	10000.0	-1	87	0	1
2	1	68	2468.0	10000.0	-1	87	0	1
2	1	69	2550.0	10000.0	-1	87	0	1
2	1	70	2447.0	10000.0	-1	87	0	1
2	1	71	2452.0	10000.0	-1	87	0	1
2	1	72	2550.0	10000.0	-1	87	0	1
2	1	73	2506.0	10000.0	-1	87	0	1
1	2	27	531.0	1042.8729283739444	-1	72	0	1
1	2	28	544.0	1066.1236221825284	-1	72	0	1
1	2	29	550.0	1088.8399396051814	-1	72	0	1
1	2	30	558.0	1108.2654402654587	-1	1	0	1
1	2	31	572.0	1117.076668995586	-1	1	0	1
1	2	32	576.0	1103.8535326410267	-1	76	0	1
1	2	33	625.0	1070.3573924171565	-1	76	0	1
2	2	34	649.0	10000.0	-1	135	0	1
2	2	35	708.0	10000.0	-1	135	0	1
2	2	36	788.0	10000.0	-1	135	0	1
2	2	37	916.0	10000.0	-1	135	0	1
2	2	38	1025.0	10000.0	-1	135	0	1
2	2	39	1092.0	10000.0	-1	135	0	1
2	2	40	1166.0	10000.0	-1	82	0	1
2	2	41	1210.0	10000.0	-1	82	0	1
2	2	42	1398.0	10000.0	-1	82	0	1
2	2	43	1521.0	10000.0	-1	82	0	1
2	2	44	1714.0	10000.0	-1	87	0	1
2	2	45	1756.0	10000.0	-1	87	0	1
2	2	46	1692.0	10000.0	-1	87	0	1
2	2	47	1645.0	10000.0	-1	87	0	1
2	2	48	1762.0	10000.0	-1	87	0	1
2	2	49	1710.0	10000.0	-1	87	0	1
2	2	50	1530.0	10000.0	-1	87	0	1
2	2	51	1407.0	10000.0	-1	87	0	1
2	2	52	1360.0	10000.0	-1	87	0	1
2	2	53	1424.0	10000.0	-1	87	0	1
2	2	54	1577.0	10000.0	-1	87	0	1
2	2	55	1719.0	10000.0	-1	87	0	1
2	2	56	1784.0	10000.0	-1	87	0	1
2	2	57	1912.0	10000.0	-1	87	0	1
2	2	58	1931.0	10000.0	-1	87	0	1
2	2	59	1810.0	10000.0	-1	87	0	1
2	2	60	1756.0	10000.0	-1	87	0	1
2	2	61	1566.0	10000.0	-1	87	0	1
2	2	62	1685.0	10000.0	-1	87	0	1
2	2	63	1831.0	10000.0	-1	87	0	1
2	2	64	1961.0	10000.0	-1	87	0	1
2	2	65	2007.0	10000.0	-1	87	0	1
2	2	66	2179.0	10000.0	-1	87	0	1
2	2	67	2325.0	10000.0	-1	87	0	1
2	2	68	2444.0	10000.0	-1	87	0	1
2	2	69	2562.0	10000.0	-1	87	0	1
2	2	70	2561.0	10000.0	-1	87	0	1
2	2	71	2481.0	10000.0	-1	87	0	1
2	2	72	2513.0	10000.0	-1	87	0	1
1	3	27	518.0	1051.6822667356741	-1	72	0	1
1	3	28	528.0	1077.3104301048609	-1	72	0	1
1	3	29	540.0	1104.4544316545775	-1	1	0	1
1	3	30	547.0	1133.6929706423	-1	1	0	1
1	3	31	550.0	1159.2297085330713	-1	1	0	1
1	3	32	560.0	1155.7649235925942	-1	76	0	1
1	3	33	585.0	1107.670142300858	-1	76	0	1
2	3	34	643.0	10000.0	-1	135	0	1
2	3	35	660.0	10000.0	-1	135	0	1
2	3	36	735.0	10000.0	-1	135	0	1
2	3	37	767.0	10000.0	-1	135	0	1
2	3	38	908.0	10000.0	-1	135	0	1
2	3	39	1055.0	10000.0	-1	82	0	1
2	3	40	1045.0	10000.0	-1	82	0	1
2	3	41	1155.0	10000.0	-1	82	0	1
2	3	42	1435.0	10000.0	-1	82	0	1
2	3	43	1557.0	10000.0	-1	87	0	1
2	3	44	1532.0	10000.0	-1	87	0	1
2	3	45	1498.0	10000.0	-1	87	0	1
2	3	46	1442.0	10000.0	-1	87	0	1
2	3	47	1408.0	10000.0	-1	87	0	1
2	3	48	1656.0	10000.0	-1	87	0	1
2	3	49	1637.0	10000.0	-1	87	0	1
2	3	50	1466.0	10000.0	-1	87	0	1
2	3	51	1302.0	10000.0	-1	87	0	1
2	3	52	1291.0	10000.0	-1	87	0	1
2	3	53	1374.0	10000.0	-1	87	0	1
2	3	54	1551.0	10000.0	-1	87	0	1
2	3	55	1708.0	10000.0	-1	87	0	1
2	3	56	1670.0	10000.0	-1	87	0	1
2	3	57	1710.0	10000.0	-1	87	0	1
2	3	58	1738.0	10000.0	-1	87	0	1
2	3	59	1696.0	10000.0	-1	87	0	1
2	3	60	1661.0	10000.0	-1	87	0	1
2	3	61	1549.0	10000.0	-1	87	0	1
2	3	62	1690.0	10000.0	-1	87	0	1
2	3	63	1900.0	10000.0	-1	87	0	1
2	3	64	2129.0	10000.0	-1	87	0	1
2	3	65	2161.0	10000.0	-1	87	0	1
2	3	66	2106.0	10000.0	-1	87	0	1
2	3	67	2274.0	10000.0	-1	87	0	1
2	3	68	2386.0	10000.0	-1	87	0	1
2	3	69	2466.0	10000.0	-1	87	0	1
2	3	70	2637.0	10000.0	-1	87	0	1
2	3	71	2505.0	10000.0	-1	87	0	1
1	4	26	503.0	1033.8011085325736	-1	72	0	1
1	4	27	510.0	1055.3378985970312	-1	72	0	1
1	4	28	515.0	1080.282824589126	-1	72	0	1
1	4	29	524.0	1107.875218724704	-1	1	0	1
1	4	30	531.0	1140.4593016467995	-1	1	0	1
1	4	31	536.0	1179.0449123442502	-1	1	0	1
1	4	32	548.0	1227.339024904069	-1	1	0	1
1	4	33	566.0	1120.5410400838355	-1	76	0	1
1	4	34	698.0	1030.9306978505347	-1	76	0	1
2	4	35	794.0	10000.0	-1	135	0	1
2	4	36	836.0	10000.0	-1	135	0	1
2	4	37	839.0	10000.0	-1	135	0	1
2	4	38	980.0	10000.0	-1	82	0	1
2	4	39	987.0	10000.0	-1	82	0	1
2	4	40	977.0	10000.0	-1	82	0	1
2	4	41	1144.0	10000.0	-1	82	0	1
2	4	42	1285.0	10000.0	-1	82	0	1
2	4	43	1394.0	10000.0	-1	87	0	1
2	4	44	1368.0	10000.0	-1	87	0	1
2	4	45	1323.0	10000.0	-1	87	0	1
2	4	46	1357.0	10000.0	-1	87	0	1
2	4	47	1230.0	10000.0	-1	87	0	1
2	4	48	1424.0	10000.0	-1	87	0	1
2	4	49	1529.0	10000.0	-1	87	0	1
2	4	50	1372.0	10000.0	-1	87	0	1
2	4	51	1214.0	10000.0	-1	87	0	1
2	4	52	1211.0	10000.0	-1	87	0	1
2	4	53	1263.0	10000.0	-1	87	0	1
2	4	54	1482.0	10000.0	-1	87	0	1
2	4	55	1584.0	10000.0	-1	87	0	1
2	4	56	1489.0	10000.0	-1	87	0	1
2	4	57	1523.0	10000.0	-1	87	0	1
2	4	58	1548.0	10000.0	-1	87	0	1
2	4	59	1528.0	10000.0	-1	87	0	1
2	4	60	1495.0	10000.0	-1	87	0	1
2	4	61	1493.0	10000.0	-1	87	0	1
2	4	62	1673.0	10000.0	-1	87	0	1
2	4	63	1864.0	10000.0	-1	87	0	1
2	4	64	2071.0	10000.0	-1	87	0	1
2	4	65	2263.0	10000.0	-1	87	0	1
2	4	66	2251.0	10000.0	-1	87	0	1
2	4	67	2266.0	10000.0	-1	87	0	1
2	4	68	2425.0	10000.0	-1	87	0	1
2	4	69	2486.0	10000.0	-1	87	0	1
2	4	70	2638.0	10000.0	-1	87	0	1
2	4	71	2601.0	10000.0	-1	87	0	1
1	5	24	478.0	991.4691392935542	-1	72	0	1
1	5	25	487.0	1011.8632847260701	-1	72	0	1
1	5	26	496.0	1033.0673471112823	-1	72	0	1
1	5	27	504.0	1053.755535058613	-1	72	0	1
1	5	28	507.0	1073.7753017374534	-1	72	0	1
1	5	29	513.0	1096.8725941164507	-1	1	0	1
1	5	30	516.0	1123.1764880278758	-1	1	0	1
1	5	31	520.0	1151.575371637839	-1	1	0	1
1	5	32	533.0	1145.5224705975606	-1	1	0	1
1	5	33	538.0	1084.457577476686	-1	76	0	1
1	5	34	569.0	1009.6356075478933	-1	76	0	1
1	5	35	803.0	939.8601758858135	-1	76	0	1
2	5	36	854.0	10000.0	-1	135	0	1
2	5	37	787.0	10000.0	-1	82	0	1
2	5	38	867.0	10000.0	-1	82	0	1
2	5	39	902.0	10000.0	-1	82	0	1
2	5	40	1079.0	10000.0	-1	82	0	1
2	5	41	1077.0	10000.0	-1	82	0	1
2	5	42	1158.0	10000.0	-1	82	0	1
2	5	43	1306.0	10000.0	-1	87	0	1
2	5	44	1327.0	10000.0	-1	87	0	1
2	5	45	1156.0	10000.0	-1	87	0	1
2	5	46	1198.0	10000.0	-1	87	0	1
2	5	47	1103.0	10000.0	-1	87	0	1
2	5	48	1199.0	10000.0	-1	87	0	1
2	5	49	1367.0	10000.0	-1	87	0	1
2	5	50	1278.0	10000.0	-1	87	0	1
2	5	51	1168.0	10000.0	-1	87	0	1
2	5	52	1169.0	10000.0	-1	87	0	1
2	5	53	1206.0	10000.0	-1	87	0	1
2	5	54	1340.0	10000.0	-1	87	0	1
2	5	55	1393.0	10000.0	-1	87	0	1
2	5	56	1390.0	10000.0	-1	87	0	1
2	5	57	1368.0	10000.0	-1	87	0	1
2	5	58	1340.0	10000.0	-1	87	0	1
2	5	59	1361.0	10000.0	-1	87	0	1
2	5	60	1505.0	10000.0	-1	87	0	1
2	5	61	1581.0	10000.0	-1	87	0	1
2	5	62	1634.0	10000.0	-1	87	0	1
2	5	63	1841.0	10000.0	-1	87	0	1
2	5	64	2018.0	10000.0	-1	87	0	1
2	5	65	2182.0	10000.0	-1	87	0	1
2	5	66	2287.0	10000.0	-1	87	0	1
2	5	67	2372.0	10000.0	-1	87	0	1
2	5	68	2562.0	10000.0	-1	87	0	1
2	5	69	2591.0	10000.0	-1	87	0	1
2	5	70	2561.0	10000.0	-1	87	0	1
2	5	71	2563.0	10000.0	-1	87	0	1
1	6	22	459.0	945.5243075267459	-1	72	0	1
1	6	23	467.0	970.8420120143076	-1	72	0	1
1	6	24	474.0	993.8427210286842	-1	72	0	1
1	6	25	481.0	1012.9669769277101	-1	72	0	1
1	6	26	487.0	1031.3626248331482	-1	72	0	1
1	6	27	493.0	1048.056295007356	-1	72	0	1
1	6	28	499.0	1063.0252207466478	-1	1	0	1
1	6	29	501.0	1079.3882213551485	-1	1	0	1
1	6	30	505.0	1096.4625629172751	-1	1	0	1
1	6	31	509.0	1102.3584156931006	-1	1	0	1
1	6	32	516.0	1081.9678812877446	-1	1	0	1
1	6	33	516.0	1036.120768587528	-1	76	0	1
1	6	34	541.0	978.6462065635474	-1	76	0	1
1	6	35	622.0	921.2875495405824	-1	76	0	1
2	6	36	688.0	10000.0	-1	82	0	1
2	6	37	712.0	10000.0	-1	82	0	1
2	6	38	734.0	10000.0	-1	82	0	1
2	6	39	815.0	10000.0	-1	82	0	1
2	6	40	964.0	10000.0	-1	82	0	1
2	6	41	964.0	10000.0	-1	82	0	1
2	6	42	1044.0	10000.0	-1	82	0	1
2	6	43	1165.0	10000.0	-1	82	0	1
2	6	44	1267.0	10000.0	-1	87	0	1
2	6	45	1132.0	10000.0	-1	87	0	1
2	6	46	1029.0	10000.0	-1	87	0	1
2	6	47	967.0	10000.0	-1	87	0	1
2	6	48	992.0	10000.0	-1	87	0	1
2	6	49	1117.0	10000.0	-1	87	0	1
2	6	50	1153.0	10000.0	-1	87	0	1
2	6	51	1153.0	10000.0	-1	87	0	1
2	6	52	1084.0	10000.0	-1	87	0	1
2	6	53	1163.0	10000.0	-1	87	0	1
2	6	54	1220.0	10000.0	-1	87	0	1
2	6	55	1288.0	10000.0	-1	87	0	1
2	6	56	1270.0	10000.0	-1	87	0	1
2	6	57	1177.0	10000.0	-1	87	0	1
2	6	58	1305.0	10000.0	-1	87	0	1
2	6	59	1498.0	10000.0	-1	87	0	1
2	6	60	1602.0	10000.0	-1	87	0	1
2	6	61	1551.0	10000.0	-1	87	0	1
2	6	62	1592.0	10000.0	-1	87	0	1
2	6	63	1675.0	10000.0	-1	87	0	1
2	6	64	1868.0	10000.0	-1	87	0	1
2	6	65	1978.0	10000.0	-1	87	0	1
2	6	66	2119.0	10000.0	-1	87	0	1
2	6	67	2327.0	10000.0	-1	87	0	1
2	6	68	2505.0	10000.0	-1	87	0	1
2	6	69	2653.0	10000.0	-1	87	0	1
2	6	70	2641.0	10000.0	-1	87	0	1
1	7	17	727.0	784.1365741737844	-1	72	0	1
1	7	18	622.0	820.6202563661359	-1	72	0	1
1	7	19	516.0	856.1490949645728	-1	72	0	1
1	7	20	488.0	888.2892094675511	-1	72	0	1
1	7	21	473.0	923.16952224227	-1	72	0	1
1	7	22	460.0	950.0801770942464	-1	72	0	1
1	7	23	465.0	975.2552096447176	-1	72	0	1
1	7	24	471.0	997.3070231389906	-1	72	0	1
1	7	25	477.0	1014.6914990386787	-1	72	0	1
1	7	26	480.0	1029.5107609824518	-1	72	0	1
1	7	27	483.0	1041.061600359954	-1	72	0	1
1	7	28	489.0	1050.1176397753877	-1	1	0	1
1	7	29	492.0	1058.2379926151175	-1	1	0	1
1	7	30	495.0	1064.3559059248753	-1	1	0	1
1	7	31	498.0	1056.0805914977998	-1	1	0	1
1	7	32	501.0	1031.5588897366854	-1	1	0	1
1	7	33	501.0	993.5591222656374	-1	76	0	1
1	7	34	509.0	948.2765041899605	-1	76	0	1
1	7	35	544.0	902.0978748414257	-1	76	0	1
1	7	36	632.0	858.0000311939415	-1	76	0	1
2	7	37	655.0	10000.0	-1	82	0	1
2	7	38	693.0	10000.0	-1	82	0	1
2	7	39	752.0	10000.0	-1	82	0	1
2	7	40	816.0	10000.0	-1	82	0	1
2	7	41	887.0	10000.0	-1	82	0	1
2	7	42	1019.0	10000.0	-1	82	0	1
2	7	43	1158.0	10000.0	-1	87	0	1
2	7	44	1217.0	10000.0	-1	87	0	1
2	7	45	1134.0	10000.0	-1	87	0	1
2	7	46	1072.0	10000.0	-1	87	0	1
2	7	47	929.0	10000.0	-1	87	0	1
2	7	48	819.0	10000.0	-1	87	0	1
2	7	49	878.0	10000.0	-1	87	0	1
2	7	50	1119.0	10000.0	-1	87	0	1
2	7	51	1098.0	10000.0	-1	87	0	1
2	7	52	1028.0	10000.0	-1	87	0	1
2	7	53	1104.0	10000.0	-1	87	0	1
2	7	54	1104.0	10000.0	-1	87	0	1
2	7	55	1100.0	10000.0	-1	87	0	1
2	7	56	1116.0	10000.0	-1	87	0	1
2	7	57	1118.0	10000.0	-1	87	0	1
2	7	58	1322.0	10000.0	-1	87	0	1
2	7	59	1427.0	10000.0	-1	87	0	1
2	7	60	1499.0	10000.0	-1	87	0	1
2	7	61	1491.0	10000.0	-1	87	0	1
2	7	62	1639.0	10000.0	-1	87	0	1
2	7	63	1692.0	10000.0	-1	87	0	1
2	7	64	1795.0	10000.0	-1	87	0	1
2	7	65	1897.0	10000.0	-1	87	0	1
2	7	66	2089.0	10000.0	-1	87	0	1
2	7	67	2179.0	10000.0	-1	87	0	1
2	7	68	2430.0	10000.0	-1	87	0	1
2	7	69	2633.0	10000.0	-1	87	0	1
2	7	70	2620.0	10000.0	-1	87	0	1
2	7	71	2573.0	10000.0	-1	87	0	1
2	8	15	845.0	10000.0	-1	103	0	1
1	8	16	800.0	740.4228942345314	-1	72	0	1
1	8	17	772.0	783.395723279556	-1	72	0	1
1	8	18	662.0	823.9722336998411	-1	72	0	1
1	8	19	535.0	861.5103908240609	-1	72	0	1
1	8	20	495.0	894.655266548558	-1	72	0	1
1	8	21	475.0	925.2001850921247	-1	72	0	1
1	8	22	462.0	952.1708595101356	-1	72	0	1
1	8	23	464.0	981.031161253542	-1	72	0	1
1	8	24	468.0	1002.305348628854	-1	72	0	1
1	8	25	472.0	1017.836496625229	-1	72	0	1
1	8	26	473.0	1028.570202002743	-1	72	0	1
1	8	27	474.0	1034.292525405923	-1	72	0	1
1	8	28	479.0	1036.406872877665	-1	72	0	1
1	8	29	484.0	1036.187719764976	-1	1	0	1
1	8	30	490.0	1032.7962883041457	-1	1	0	1
1	8	31	490.0	1016.6159518912996	-1	1	0	1
1	8	32	490.0	990.4999886196271	-1	72	0	1
1	8	33	493.0	957.8207952046017	-1	72	0	1
1	8	34	510.0	921.0949777337576	-1	76	0	1
1	8	35	532.0	884.0367740484396	-1	76	0	1
1	8	36	550.0	847.7293157292768	-1	76	0	1
1	8	37	633.0	812.8235089475874	-1	76	0	1
2	8	38	701.0	10000.0	-1	82	0	1
2	8	39	729.0	10000.0	-1	82	0	1
2	8	40	769.0	10000.0	-1	82	0	1
2	8	41	895.0	10000.0	-1	82	0	1
2	8	42	1058.0	10000.0	-1	87	0	1
2	8	43	1152.0	10000.0	-1	87	0	1
2	8	44	1128.0	10000.0	-1	87	0	1
2	8	45	1075.0	10000.0	-1	87	0	1
2	8	46	973.0	10000.0	-1	87	0	1
2	8	47	872.0	10000.0	-1	87	0	1
2	8	48	713.0	10000.0	-1	87	0	1
2	8	49	823.0	10000.0	-1	87	0	1
2	8	50	955.0	10000.0	-1	87	0	1
2	8	51	932.0	10000.0	-1	87	0	1
2	8	52	908.0	10000.0	-1	87	0	1
2	8	53	1033.0	10000.0	-1	87	0	1
2	8	54	1000.0	10000.0	-1	87	0	1
2	8	55	920.0	10000.0	-1	87	0	1
2	8	56	1024.0	10000.0	-1	87	0	1
2	8	57	1174.0	10000.0	-1	87	0	1
2	8	58	1285.0	10000.0	-1	87	0	1
2	8	59	1390.0	10000.0	-1	87	0	1
2	8	60	1399.0	10000.0	-1	87	0	1
2	8	61	1460.0	10000.0	-1	87	0	1
2	8	62	1622.0	10000.0	-1	87	0	1
2	8	63	1691.0	10000.0	-1	87	0	1
2	8	64	1785.0	10000.0	-1	87	0	1
2	8	65	1968.0	10000.0	-1	87	0	1
2	8	66	2190.0	10000.0	-1	87	0	1
2	8	67	2294.0	10000.0	-1	87	0	1
2	8	68	2408.0	10000.0	-1	87	0	1
2	8	69	2522.0	10000.0	-1	87	0	1
2	8	70	2483.0	10000.0	-1	87	0	1
2	8	71	2483.0	10000.0	-1	87	0	1
2	8	72	2456.0	10000.0	-1	87	0	1
2	9	12	983.0	10000.0	-1	103	0	1
2	9	13	933.0	10000.0	-1	103	0	1
2	9	14	913.0	10000.0	-1	103	0	1
2	9	15	868.0	10000.0	-1	103	0	1
1	9	16	869.0	735.9611825822574	-1	72	0	1
1	9	17	805.0	785.7815043619237	-1	72	0	1
1	9	18	694.0	831.0849408045975	-1	72	0	1
1	9	19	559.0	869.81969376062	-1	72	0	1
1	9	20	504.0	902.7298799144539	-1	72	0	1
1	9	21	477.0	932.9002323885891	-1	72	0	1
1	9	22	461.0	960.3032918311941	-1	72	0	1
1	9	23	460.0	986.0577483846012	-1	72	0	1
1	9	24	465.0	1009.5524578697559	-1	72	0	1
1	9	25	467.0	1023.6129685126135	-1	72	0	1
1	9	26	467.0	1029.7616554075737	-1	72	0	1
1	9	27	468.0	1029.0323103837998	-1	72	0	1
1	9	28	469.0	1021.836696235866	-1	72	0	1
1	9	29	476.0	1012.5066765938004	-1	1	0	1
1	9	30	481.0	1003.0027456103269	-1	72	0	1
1	9	31	483.0	982.5303040916052	-1	72	0	1
1	9	32	484.0	955.8569520597458	-1	72	0	1
1	9	33	482.0	927.6593566380328	-1	72	0	1
1	9	34	500.0	899.0695236971741	-1	72	0	1
1	9	35	522.0	867.9559126466839	-1	76	0	1
1	9	36	535.0	836.346503134376	-1	76	0	1
1	9	37	633.0	806.8725337071709	-1	76	0	1
2	9	38	725.0	10000.0	-1	87	0	1
2	9	39	729.0	10000.0	-1	87	0	1
2	9	40	756.0	10000.0	-1	87	0	1
2	9	41	830.0	10000.0	-1	87	0	1
2	9	42	897.0	10000.0	-1	87	0	1
2	9	43	968.0	10000.0	-1	87	0	1
2	9	44	982.0	10000.0	-1	87	0	1
2	9	45	975.0	10000.0	-1	87	0	1
2	9	46	871.0	10000.0	-1	87	0	1
2	9	47	693.0	10000.0	-1	87	0	1
2	9	48	627.0	10000.0	-1	87	0	1
2	9	49	696.0	10000.0	-1	87	0	1
2	9	50	678.0	10000.0	-1	87	0	1
2	9	51	786.0	10000.0	-1	87	0	1
2	9	52	911.0	10000.0	-1	87	0	1
2	9	53	977.0	10000.0	-1	87	0	1
2	9	54	818.0	10000.0	-1	87	0	1
2	9	55	927.0	10000.0	-1	87	0	1
2	9	56	1018.0	10000.0	-1	87	0	1
2	9	57	1138.0	10000.0	-1	87	0	1
2	9	58	1212.0	10000.0	-1	87	0	1
2	9	59	1281.0	10000.0	-1	87	0	1
2	9	60	1395.0	10000.0	-1	87	0	1
2	9	61	1533.0	10000.0	-1	87	0	1
2	9	62	1555.0	10000.0	-1	87	0	1
2	9	63	1609.0	10000.0	-1	87	0	1
2	9	64	1780.0	10000.0	-1	87	0	1
2	9	65	2029.0	10000.0	-1	87	0	1
2	9	66	2237.0	10000.0	-1	87	0	1
2	9	67	2404.0	10000.0	-1	87	0	1
2	9	68	2439.0	10000.0	-1	87	0	1
2	9	69	2321.0	10000.0	-1	87	0	1
2	9	70	2400.0	10000.0	-1	87	0	1
2	9	71	2380.0	10000.0	-1	87	0	1
2	9	72	2362.0	10000.0	-1	87	0	1
2	9	73	2395.0	10000.0	-1	87	0	1
2	10	9	1201.0	10000.0	-1	103	0	1
2	10	10	1167.0	10000.0	-1	103	0	1
2	10	11	1014.0	10000.0	-1	103	0	1
2	10	12	989.0	10000.0	-1	103	0	1
2	10	13	930.0	10000.0	-1	103	0	1
2	10	14	872.0	10000.0	-1	103	0	1
2	10	15	848.0	10000.0	-1	103	0	1
2	10	16	791.0	10000.0	-1	103	0	1
1	10	17	730.0	1141.356203906075	-1	72	0	1
1	10	18	716.0	843.4236641705756	-1	72	0	1
1	10	19	613.0	880.5382412278491	-1	72	0	1
1	10	20	507.0	902.0240399931085	-1	72	0	1
1	10	21	479.0	923.0655543625976	-1	72	0	1
1	10	22	466.0	948.6182937993931	-1	72	0	1
1	10	23	456.0	981.9932699002666	-1	72	0	1
1	10	24	459.0	1017.7421437603235	-1	72	0	1
1	10	25	461.0	1033.1822609177477	-1	72	0	1
1	10	26	462.0	1030.5728457098844	-1	72	0	1
1	10	27	464.0	1004.3543242547772	-1	72	0	1
1	10	28	464.0	980.9574995841673	-1	72	0	1
1	10	29	467.0	964.7465158688789	-1	72	0	1
1	10	30	472.0	954.9954122802054	-1	72	0	1
1	10	31	475.0	949.2296821720768	-1	72	0	1
1	10	32	474.0	925.6543002460172	-1	72	0	1
1	10	33	471.0	903.4169495503008	-1	72	0	1
1	10	34	486.0	877.5828631453761	-1	72	0	1
1	10	35	501.0	852.1823451761733	-1	76	0	1
1	10	36	511.0	826.9640097457067	-1	76	0	1
1	10	37	575.0	801.5228554176042	-1	76	0	1
2	10	38	633.0	10000.0	-1	87	0	1
2	10	39	674.0	10000.0	-1	87	0	1
2	10	40	740.0	10000.0	-1	87	0	1
2	10	41	770.0	10000.0	-1	87	0	1
2	10	42	712.0	10000.0	-1	87	0	1
2	10	43	783.0	10000.0	-1	87	0	1
2	10	44	728.0	10000.0	-1	87	0	1
2	10	45	790.0	10000.0	-1	87	0	1
2	10	46	643.0	10000.0	-1	87	0	1
2	10	47	563.0	10000.0	-1	87	0	1
2	10	48	661.0	10000.0	-1	87	0	1
2	10	49	580.0	10000.0	-1	87	0	1
2	10	50	673.0	10000.0	-1	87	0	1
2	10	51	790.0	10000.0	-1	87	0	1
2	10	52	824.0	10000.0	-1	87	0	1
2	10	53	847.0	10000.0	-1	87	0	1
2	10	54	766.0	10000.0	-1	87	0	1
2	10	55	966.0	10000.0	-1	87	0	1
2	10	56	1029.0	10000.0	-1	87	0	1
2	10	57	1166.0	10000.0	-1	87	0	1
2	10	58	1216.0	10000.0	-1	87	0	1
2	10	59	1291.0	10000.0	-1	87	0	1
2	10	60	1362.0	10000.0	-1	87	0	1
2	10	61	1488.0	10000.0	-1	87	0	1
2	10	62	1492.0	10000.0	-1	87	0	1
2	10	63	1573.0	10000.0	-1	87	0	1
2	10	64	1798.0	10000.0	-1	87	0	1
2	10	65	2010.0	10000.0	-1	87	0	1
2	10	66	2252.0	10000.0	-1	87	0	1
2	10	67	2505.0	10000.0	-1	87	0	1
2	10	68	2464.0	10000.0	-1	87	0	1
2	10	69	2324.0	10000.0	-1	87	0	1
2	10	70	2202.0	10000.0	-1	87	0	1
2	10	71	2316.0	10000.0	-1	87	0	1
2	10	72	2284.0	10000.0	-1	87	0	1
2	10	73	2331.0	10000.0	-1	87	0	1
2	10	74	2346.0	10000.0	-1	87	0	1
2	10	75	2276.0	10000.0	-1	87	0	1
2	10	76	2152.0	10000.0	-1	87	0	1
2	11	5	1291.0	10000.0	-1	103	0	1
2	11	8	1291.0	10000.0	-1	103	0	1
2	11	9	1268.0	10000.0	-1	103	0	1
2	11	10	1185.0	10000.0	-1	103	0	1
2	11	11	972.0	10000.0	-1	103	0	1
2	11	12	942.0	10000.0	-1	103	0	1
2	11	13	948.0	10000.0	-1	103	0	1
2	11	14	847.0	10000.0	-1	103	0	1
2	11	15	804.0	10000.0	-1	103	0	1
2	11	16	783.0	10000.0	-1	103	0	1
1	11	17	675.0	1155.7031888601182	-1	72	0	1
1	11	18	586.0	1243.5818624685578	-1	72	0	1
1	11	19	568.0	866.7381552034983	-1	72	0	1
1	11	20	511.0	875.2250440061359	-1	72	0	1
1	11	21	485.0	889.4019051547607	-1	72	0	1
1	11	22	470.0	910.6361479596702	-1	72	0	1
1	11	23	458.0	941.7690337776606	-1	72	0	1
1	11	24	455.0	985.9889179676721	-1	72	0	1
1	11	25	455.0	1048.2436472910952	-1	72	0	1
1	11	26	456.0	990.8275225425158	-1	72	0	1
1	11	27	456.0	951.182419039807	-1	72	0	1
1	11	28	457.0	924.5303779693525	-1	72	0	1
1	11	29	460.0	907.6106685385347	-1	3	0	1
1	11	30	463.0	898.2727043162308	-1	3	0	1
1	11	31	465.0	895.2261913004934	-1	3	0	1
1	11	32	465.0	897.9278770074047	-1	72	0	1
1	11	33	465.0	874.3755796908956	-1	72	0	1
1	11	34	471.0	855.0389331888061	-1	72	0	1
1	11	35	484.0	837.8234736378282	-1	72	0	1
1	11	36	496.0	820.8116815555735	-1	2	0	1
1	11	37	502.0	802.1810968388771	-1	76	0	1
1	11	38	503.0	780.1193849670917	-1	2	0	1
2	11	39	604.0	10000.0	-1	87	0	1
2	11	40	639.0	10000.0	-1	87	0	1
2	11	41	612.0	10000.0	-1	87	0	1
2	11	42	585.0	10000.0	-1	87	0	1
2	11	43	636.0	10000.0	-1	87	0	1
2	11	44	590.0	10000.0	-1	87	0	1
2	11	45	551.0	10000.0	-1	87	0	1
2	11	46	556.0	10000.0	-1	87	0	1
2	11	47	749.0	10000.0	-1	87	0	1
2	11	48	849.0	10000.0	-1	87	0	1
2	11	49	680.0	10000.0	-1	87	0	1
2	11	50	620.0	10000.0	-1	87	0	1
2	11	51	666.0	10000.0	-1	87	0	1
2	11	52	660.0	10000.0	-1	87	0	1
2	11	53	687.0	10000.0	-1	87	0	1
2	11	54	753.0	10000.0	-1	87	0	1
2	11	55	962.0	10000.0	-1	87	0	1
2	11	56	1019.0	10000.0	-1	87	0	1
2	11	57	1163.0	10000.0	-1	87	0	1
2	11	58	1232.0	10000.0	-1	87	0	1
2	11	59	1245.0	10000.0	-1	87	0	1
2	11	60	1272.0	10000.0	-1	87	0	1
2	11	61	1387.0	10000.0	-1	87	0	1
2	11	62	1461.0	10000.0	-1	87	0	1
2	11	63	1527.0	10000.0	-1	87	0	1
2	11	64	1721.0	10000.0	-1	87	0	1
2	11	65	2000.0	10000.0	-1	87	0	1
2	11	66	2237.0	10000.0	-1	87	0	1
2	11	67	2373.0	10000.0	-1	87	0	1
2	11	68	2456.0	10000.0	-1	87	0	1
2	11	69	2330.0	10000.0	-1	87	0	1
2	11	70	2172.0	10000.0	-1	87	0	1
2	11	71	2181.0	10000.0	-1	87	0	1
2	11	72	2219.0	10000.0	-1	87	0	1
2	11	73	2196.0	10000.0	-1	87	0	1
2	11	74	2261.0	10000.0	-1	87	0	1
2	11	75	2252.0	10000.0	-1	87	0	1
2	11	76	2137.0	10000.0	-1	87	0	1
2	11	77	2218.0	10000.0	-1	87	0	1
2	11	78	2196.0	10000.0	-1	87	0	1
2	12	3	1343.0	10000.0	-1	103	0	1
2	12	4	1312.0	10000.0	-1	103	0	1
2	12	5	1290.0	10000.0	-1	103	0	1
2	12	6	1293.0	10000.0	-1	103	0	1
2	12	7	1341.0	10000.0	-1	103	0	1
2	12	8	1285.0	10000.0	-1	103	0	1
2	12	9	1213.0	10000.0	-1	103	0	1
2	12	10	1137.0	10000.0	-1	103	0	1
2	12	11	960.0	10000.0	-1	103	0	1
2	12	12	794.0	10000.0	-1	103	0	1
2	12	13	774.0	10000.0	-1	103	0	1
2	12	14	737.0	10000.0	-1	103	0	1
2	12	15	716.0	10000.0	-1	103	0	1
2	12	16	807.0	10000.0	-1	103	0	1
2	12	17	759.0	10000.0	-1	103	0	1
1	12	18	607.0	1188.2005454752807	-1	72	0	1
1	12	19	516.0	1199.042278473778	-1	72	0	1
1	12	20	497.0	832.1684867559477	-1	72	0	1
1	12	21	489.0	841.0383254362973	-1	72	0	1
1	12	22	477.0	855.6368663769595	-1	72	0	1
1	12	23	461.0	878.2502892350934	-1	72	0	1
1	12	24	452.0	905.8344645293657	-1	72	0	1
1	12	25	448.0	921.7870137117488	-1	72	0	1
1	12	26	450.0	903.0418892617961	-1	72	0	1
1	12	27	452.0	877.70248013818	-1	3	0	1
1	12	28	452.0	857.1945587839613	-1	3	0	1
1	12	29	453.0	843.8907064963879	-1	72	0	1
1	12	30	455.0	836.5568178582192	-1	3	0	1
1	12	31	456.0	835.9087912119352	-1	3	0	1
1	12	32	455.0	840.7155549381092	-1	72	0	1
1	12	33	458.0	834.5670338151189	-1	72	0	1
1	12	34	461.0	829.944018457624	-1	72	0	1
2	12	39	476.0	10000.0	-1	87	0	1
2	12	40	499.0	10000.0	-1	87	0	1
2	12	41	496.0	10000.0	-1	87	0	1
2	12	42	502.0	10000.0	-1	87	0	1
2	12	43	535.0	10000.0	-1	87	0	1
2	12	44	562.0	10000.0	-1	87	0	1
2	12	45	649.0	10000.0	-1	87	0	1
2	12	46	707.0	10000.0	-1	87	0	1
2	12	47	767.0	10000.0	-1	87	0	1
2	12	48	1024.0	10000.0	-1	87	0	1
2	12	49	880.0	10000.0	-1	87	0	1
2	12	50	827.0	10000.0	-1	87	0	1
2	12	51	837.0	10000.0	-1	87	0	1
2	12	52	813.0	10000.0	-1	87	0	1
2	12	53	846.0	10000.0	-1	87	0	1
2	12	54	698.0	10000.0	-1	87	0	1
2	12	55	794.0	10000.0	-1	87	0	1
2	12	56	931.0	10000.0	-1	87	0	1
2	12	57	1114.0	10000.0	-1	87	0	1
2	12	58	1116.0	10000.0	-1	87	0	1
2	12	59	1156.0	10000.0	-1	87	0	1
2	12	60	1283.0	10000.0	-1	87	0	1
2	12	61	1422.0	10000.0	-1	87	0	1
2	12	62	1472.0	10000.0	-1	87	0	1
2	12	63	1566.0	10000.0	-1	87	0	1
2	12	64	1737.0	10000.0	-1	87	0	1
2	12	65	1966.0	10000.0	-1	87	0	1
2	12	66	2088.0	10000.0	-1	87	0	1
2	12	67	2165.0	10000.0	-1	87	0	1
2	12	68	2296.0	10000.0	-1	87	0	1
2	12	69	2236.0	10000.0	-1	87	0	1
2	12	70	2080.0	10000.0	-1	87	0	1
2	12	71	2066.0	10000.0	-1	87	0	1
2	12	72	2121.0	10000.0	-1	87	0	1
2	12	73	2080.0	10000.0	-1	87	0	1
2	12	74	2266.0	10000.0	-1	87	0	1
2	12	75	2147.0	10000.0	-1	87	0	1
2	12	76	2020.0	10000.0	-1	87	0	1
2	12	77	2168.0	10000.0	-1	87	0	1
2	12	78	2128.0	10000.0	-1	87	0	1
2	13	1	1480.0	10000.0	-1	103	0	1
2	13	2	1386.0	10000.0	-1	103	0	1
2	13	3	1329.0	10000.0	-1	103	0	1
2	13	4	1316.0	10000.0	-1	103	0	1
2	13	5	1303.0	10000.0	-1	103	0	1
2	13	6	1250.0	10000.0	-1	103	0	1
2	13	7	1230.0	10000.0	-1	103	0	1
2	13	8	1206.0	10000.0	-1	103	0	1
2	13	9	1186.0	10000.0	-1	103	0	1
2	13	10	1062.0	10000.0	-1	103	0	1
2	13	11	858.0	10000.0	-1	103	0	1
2	13	12	911.0	10000.0	-1	103	0	1
2	13	13	864.0	10000.0	-1	103	0	1
2	13	14	851.0	10000.0	-1	103	0	1
2	13	15	721.0	10000.0	-1	103	0	1
2	13	16	658.0	10000.0	-1	103	0	1
2	13	17	629.0	10000.0	-1	103	0	1
1	13	18	571.0	1141.9140618748386	-1	72	0	1
1	13	19	606.0	1147.5131177954624	-1	72	0	1
1	13	20	511.0	1140.8826528960603	-1	72	0	1
1	13	21	479.0	792.1323087254066	-1	72	0	1
1	13	22	466.0	798.3629918811376	-1	72	0	1
1	13	23	459.0	807.4314455095268	-1	72	0	1
1	13	24	450.0	816.2588074227315	-1	72	0	1
1	13	25	445.0	818.9604360535344	-1	72	0	1
1	13	26	444.0	810.4040184923482	-1	3	0	1
1	13	27	446.0	796.7769993617607	-1	3	0	1
1	13	28	447.0	785.497299355174	-1	3	0	1
1	13	29	449.0	777.506918810208	-1	72	0	1
1	13	30	448.0	775.5019608622623	-1	3	0	1
1	13	31	447.0	781.0151514973536	-1	3	0	1
1	13	32	451.0	788.7488908834075	-1	3	0	1
1	13	33	454.0	795.734600549197	-1	72	0	1
1	13	36	460.0	820.9108307546337	-1	72	0	1
1	13	37	462.0	828.9828949143525	-1	72	0	1
1	13	38	465.0	832.4358749469802	-1	2	0	1
1	13	39	483.0	832.1543474142753	-1	76	0	1
2	13	40	527.0	10000.0	-1	87	0	1
2	13	41	501.0	10000.0	-1	87	0	1
2	13	42	560.0	10000.0	-1	87	0	1
2	13	43	716.0	10000.0	-1	87	0	1
2	13	44	731.0	10000.0	-1	87	0	1
2	13	45	732.0	10000.0	-1	87	0	1
2	13	46	866.0	10000.0	-1	87	0	1
2	13	47	911.0	10000.0	-1	87	0	1
2	13	48	1039.0	10000.0	-1	87	0	1
2	13	49	976.0	10000.0	-1	87	0	1
2	13	50	959.0	10000.0	-1	87	0	1
2	13	51	1096.0	10000.0	-1	87	0	1
2	13	52	1039.0	10000.0	-1	87	0	1
2	13	53	1106.0	10000.0	-1	87	0	1
2	13	54	935.0	10000.0	-1	87	0	1
2	13	55	760.0	10000.0	-1	87	0	1
2	13	56	913.0	10000.0	-1	87	0	1
2	13	57	1024.0	10000.0	-1	87	0	1
2	13	58	987.0	10000.0	-1	87	0	1
2	13	59	1100.0	10000.0	-1	87	0	1
2	13	60	1262.0	10000.0	-1	87	0	1
2	13	61	1470.0	10000.0	-1	87	0	1
2	13	62	1592.0	10000.0	-1	87	0	1
2	13	63	1688.0	10000.0	-1	87	0	1
2	13	64	1760.0	10000.0	-1	87	0	1
2	13	65	1910.0	10000.0	-1	87	0	1
2	13	66	1968.0	10000.0	-1	87	0	1
2	13	67	2041.0	10000.0	-1	87	0	1
2	13	68	2090.0	10000.0	-1	87	0	1
2	13	69	2194.0	10000.0	-1	87	0	1
2	13	70	2084.0	10000.0	-1	87	0	1
2	13	71	1953.0	10000.0	-1	87	0	1
2	13	72	1944.0	10000.0	-1	87	0	1
2	13	73	2012.0	10000.0	-1	87	0	1
2	13	74	2137.0	10000.0	-1	87	0	1
2	13	75	1982.0	10000.0	-1	87	0	1
2	13	76	2042.0	10000.0	-1	87	0	1
2	13	77	2075.0	10000.0	-1	87	0	1
2	13	78	2094.0	10000.0	-1	87	0	1
2	13	79	2135.0	10000.0	-1	87	0	1
2	13	80	2063.0	10000.0	-1	87	0	1
2	14	1	1402.0	10000.0	-1	103	0	1
2	14	2	1368.0	10000.0	-1	103	0	1
2	14	3	1320.0	10000.0	-1	103	0	1
2	14	4	1316.0	10000.0	-1	103	0	1
2	14	5	1251.0	10000.0	-1	103	0	1
2	14	6	1221.0	10000.0	-1	103	0	1
2	14	7	1204.0	10000.0	-1	103	0	1
2	14	8	1244.0	10000.0	-1	103	0	1
2	14	9	1206.0	10000.0	-1	103	0	1
2	14	10	1008.0	10000.0	-1	103	0	1
2	14	11	1009.0	10000.0	-1	103	0	1
2	14	12	1068.0	10000.0	-1	103	0	1
2	14	13	1082.0	10000.0	-1	103	0	1
2	14	14	1058.0	10000.0	-1	103	0	1
2	14	15	926.0	10000.0	-1	103	0	1
2	14	16	816.0	10000.0	-1	103	0	1
2	14	17	780.0	10000.0	-1	103	0	1
1	14	18	717.0	1100.9211767591555	-1	72	0	1
1	14	19	652.0	1092.7957418313133	-1	72	0	1
1	14	20	559.0	1080.1959905341332	-1	72	0	1
1	14	21	488.0	1070.0293226412316	-1	72	0	1
1	14	22	469.0	739.7413590114769	-1	72	0	1
1	14	23	456.0	737.1282263936125	-1	72	0	1
1	14	24	449.0	734.7635546951452	-1	72	0	1
1	14	25	444.0	731.5925611596538	-1	5	0	1
1	14	26	440.0	727.0138201622001	-1	3	0	1
1	14	27	442.0	722.3425777011811	-1	3	0	1
1	14	28	443.0	719.3618134757784	-1	72	0	1
1	14	29	443.0	717.1827182772605	-1	3	0	1
1	14	30	443.0	718.911784040653	-1	3	0	1
1	14	31	443.0	726.718443756562	-1	3	0	1
1	14	32	445.0	739.2265249915062	-1	72	0	1
1	14	35	446.0	803.1345725525474	-1	72	0	1
1	14	36	449.0	827.6233079208691	-1	72	0	1
1	14	37	455.0	851.2087777583564	-1	2	0	1
1	14	38	462.0	868.7722088626768	-1	72	0	1
1	14	39	481.0	878.1577197623886	-1	76	0	1
2	14	40	589.0	10000.0	-1	87	0	1
2	14	41	681.0	10000.0	-1	87	0	1
2	14	42	620.0	10000.0	-1	87	0	1
2	14	43	695.0	10000.0	-1	87	0	1
2	14	44	666.0	10000.0	-1	102	0	1
2	14	45	714.0	10000.0	-1	102	0	1
2	14	46	828.0	10000.0	-1	102	0	1
2	14	47	917.0	10000.0	-1	102	0	1
2	14	48	1060.0	10000.0	-1	87	0	1
2	14	49	1204.0	10000.0	-1	87	0	1
2	14	50	1119.0	10000.0	-1	87	0	1
2	14	51	1313.0	10000.0	-1	87	0	1
2	14	52	1315.0	10000.0	-1	87	0	1
2	14	53	1254.0	10000.0	-1	87	0	1
2	14	54	1183.0	10000.0	-1	87	0	1
2	14	55	917.0	10000.0	-1	87	0	1
2	14	56	793.0	10000.0	-1	87	0	1
2	14	57	858.0	10000.0	-1	87	0	1
2	14	58	951.0	10000.0	-1	87	0	1
2	14	59	1076.0	10000.0	-1	87	0	1
2	14	60	1217.0	10000.0	-1	87	0	1
2	14	61	1398.0	10000.0	-1	87	0	1
2	14	62	1441.0	10000.0	-1	87	0	1
2	14	63	1555.0	10000.0	-1	87	0	1
2	14	64	1720.0	10000.0	-1	87	0	1
2	14	65	1858.0	10000.0	-1	87	0	1
2	14	66	1926.0	10000.0	-1	87	0	1
2	14	67	1934.0	10000.0	-1	87	0	1
2	14	68	2004.0	10000.0	-1	87	0	1
2	14	69	2110.0	10000.0	-1	87	0	1
2	14	70	2007.0	10000.0	-1	87	0	1
2	14	71	1907.0	10000.0	-1	87	0	1
2	14	72	1768.0	10000.0	-1	87	0	1
2	14	73	1870.0	10000.0	-1	87	0	1
2	14	74	1918.0	10000.0	-1	87	0	1
2	14	75	1859.0	10000.0	-1	87	0	1
2	14	76	2005.0	10000.0	-1	87	0	1
2	14	77	1964.0	10000.0	-1	87	0	1
2	14	78	1922.0	10000.0	-1	87	0	1
2	14	79	1999.0	10000.0	-1	87	0	1
2	14	80	2030.0	10000.0	-1	87	0	1
2	15	1	1378.0	10000.0	-1	103	0	1
2	15	2	1327.0	10000.0	-1	103	0	1
2	15	3	1292.0	10000.0	-1	103	0	1
2	15	4	1249.0	10000.0	-1	103	0	1
2	15	5	1240.0	10000.0	-1	103	0	1
2	15	6	1254.0	10000.0	-1	103	0	1
2	15	7	1203.0	10000.0	-1	103	0	1
2	15	8	1154.0	10000.0	-1	103	0	1
2	15	9	1110.0	10000.0	-1	103	0	1
2	15	10	1164.0	10000.0	-1	103	0	1
2	15	11	1136.0	10000.0	-1	103	0	1
2	15	12	1180.0	10000.0	-1	103	0	1
2	15	13	1194.0	10000.0	-1	103	0	1
2	15	14	1150.0	10000.0	-1	103	0	1
2	15	15	1064.0	10000.0	-1	103	0	1
2	15	16	1019.0	10000.0	-1	103	0	1
2	15	17	959.0	10000.0	-1	103	0	1
2	15	18	795.0	10000.0	-1	103	0	1
1	15	19	609.0	1040.2210468243986	-1	72	0	1
1	15	20	559.0	1019.4866670401458	-1	72	0	1
1	15	21	537.0	1001.9091962190266	-1	72	0	1
1	15	22	498.0	986.0049853479602	-1	72	0	1
1	15	23	458.0	672.4680092336104	-1	72	0	1
1	15	24	449.0	661.6776120111434	-1	5	0	1
1	15	25	441.0	654.5432791042547	-1	5	0	1
1	15	26	437.0	652.3802209243502	-1	3	0	1
1	15	27	434.0	653.8761380528051	-1	72	0	1
1	15	28	436.0	657.9776036836971	-1	72	0	1
1	15	29	438.0	660.5308695218176	-1	72	0	1
1	15	30	438.0	663.7725915103803	-1	3	0	1
1	15	31	438.0	673.3922564658254	-1	72	0	1
1	15	32	440.0	690.1506030893878	-1	72	0	1
1	15	34	443.0	751.629972329263	-1	72	0	1
1	15	35	446.0	792.183365950735	-1	2	0	1