#Drain Returnflow
    BEGIN OPTIONS
         RETURNFLOW
    #    PRINTFILE  89
    #    DBFILE    ./Output/DRT_Output.txt
         NOPRINT
    END OPTIONS
    16911 50 0 0
16911 0
1	1	28	553.0	1465.535	-1	72	0	1
1	1	29	568.0	1502.99	-1	72	0	1
1	1	30	575.0	1538.995	-1	76	0	1
1	1	31	603.0	1570.399	-1	76	0	1
2	1	32	625.0	1169.051	-1	94	0	1
2	1	33	716.0	1189.732	-1	135	0	1
2	1	34	721.0	1210.85	-1	135	0	1
2	1	35	806.0	1229.87	-1	135	0	1
2	1	36	839.0	1251.253	-1	135	0	1
2	1	37	886.0	1267.025	-1	135	0	1
2	1	38	1061.0	1286.305	-1	135	0	1
2	1	39	1238.0	1300.105	-1	135	0	1
2	1	40	1343.0	1308.071	-1	82	0	1
2	1	41	1264.0	1312.837	-1	82	0	1
2	1	42	1421.0	1314.367	-1	82	0	1
2	1	43	1582.0	1323.246	-1	82	0	1
2	1	44	1773.0	1318.067	-1	87	0	1
2	1	45	2007.0	1309.356	-1	87	0	1
2	1	46	1922.0	1295.648	-1	87	0	1
2	1	47	1844.0	1274.381	-1	87	0	1
2	1	48	1964.0	1250.107	-1	87	0	1
2	1	49	1810.0	1228.127	-1	87	0	1
2	1	50	1603.0	1199.556	-1	87	0	1
2	1	51	1496.0	1170.973	-1	87	0	1
2	1	52	1410.0	1143.173	-1	87	0	1
2	1	53	1450.0	1116.493	-1	87	0	1
2	1	54	1521.0	1090.892	-1	87	0	1
2	1	55	1696.0	1066.296	-1	87	0	1
2	1	56	1862.0	1042.978	-1	87	0	1
2	1	57	1975.0	1021.676	-1	87	0	1
2	1	58	1980.0	1003.617	-1	87	0	1
2	1	59	1905.0	990.529	-1	87	0	1
2	1	60	1827.0	982.3369	-1	87	0	1
2	1	61	1678.0	983.8893	-1	87	0	1
2	1	62	1638.0	991.8721	-1	87	0	1
2	1	63	1651.0	1004.018	-1	87	0	1
2	1	64	1870.0	1018.781	-1	87	0	1
2	1	65	2063.0	1032.583	-1	87	0	1
2	1	66	2252.0	1044.069	-1	87	0	1
2	1	67	2392.0	1051.306	-1	87	0	1
2	1	68	2468.0	1053.416	-1	87	0	1
2	1	69	2550.0	1051.189	-1	87	0	1
2	1	70	2447.0	1044.045	-1	87	0	1
2	1	71	2452.0	1037.458	-1	87	0	1
2	1	72	2550.0	1030.627	-1	87	0	1
2	1	73	2506.0	1024.175	-1	87	0	1
1	2	27	531.0	1423.194	-1	72	0	1
1	2	28	544.0	1465.048	-1	72	0	1
1	2	29	550.0	1509.496	-1	72	0	1
1	2	30	558.0	1553.673	-1	1	0	1
1	2	31	572.0	1593.309	-1	1	0	1
1	2	32	576.0	1622.048	-1	76	0	1
1	2	33	625.0	1631.297	-1	76	0	1
2	2	34	649.0	1214.764	-1	135	0	1
2	2	35	708.0	1236.488	-1	135	0	1
2	2	36	788.0	1260.431	-1	135	0	1
2	2	37	916.0	1278.762	-1	135	0	1
2	2	38	1025.0	1303.907	-1	135	0	1
2	2	39	1092.0	1320.903	-1	135	0	1
2	2	40	1166.0	1329.595	-1	82	0	1
2	2	41	1210.0	1333.983	-1	82	0	1
2	2	42	1398.0	1335.496	-1	82	0	1
2	2	43	1521.0	1340.864	-1	82	0	1
2	2	44	1714.0	1337.673	-1	87	0	1
2	2	45	1756.0	1331.051	-1	87	0	1
2	2	46	1692.0	1317.849	-1	87	0	1
2	2	47	1645.0	1294.635	-1	87	0	1
2	2	48	1762.0	1265.933	-1	87	0	1
2	2	49	1710.0	1237.748	-1	87	0	1
2	2	50	1530.0	1205.122	-1	87	0	1
2	2	51	1407.0	1173.067	-1	87	0	1
2	2	52	1360.0	1142.426	-1	87	0	1
2	2	53	1424.0	1113.472	-1	87	0	1
2	2	54	1577.0	1085.743	-1	87	0	1
2	2	55	1719.0	1058.662	-1	87	0	1
2	2	56	1784.0	1032.354	-1	87	0	1
2	2	57	1912.0	1007.578	-1	87	0	1
2	2	58	1931.0	985.6799	-1	87	0	1
2	2	59	1810.0	969.0397	-1	87	0	1
2	2	60	1756.0	960.2154	-1	87	0	1
2	2	61	1566.0	964.2477	-1	87	0	1
2	2	62	1685.0	976.8875	-1	87	0	1
2	2	63	1831.0	994.7607	-1	87	0	1
2	2	64	1961.0	1014.114	-1	87	0	1
2	2	65	2007.0	1032.895	-1	87	0	1
2	2	66	2179.0	1048.689	-1	87	0	1
2	2	67	2325.0	1058.091	-1	87	0	1
2	2	68	2444.0	1059.13	-1	87	0	1
2	2	69	2562.0	1052.611	-1	87	0	1
2	2	70	2561.0	1044.368	-1	87	0	1
2	2	71	2481.0	1035.082	-1	87	0	1
2	2	72	2513.0	1026.397	-1	87	0	1
1	3	27	518.0	1398.654	-1	72	0	1
1	3	28	528.0	1438.926	-1	72	0	1
1	3	29	540.0	1489.473	-1	1	0	1
1	3	30	547.0	1552.119	-1	1	0	1
1	3	31	550.0	1616.137	-1	1	0	1
1	3	32	560.0	1654.417	-1	76	0	1
1	3	33	585.0	1633.257	-1	76	0	1
2	3	34	643.0	1216.992	-1	135	0	1
2	3	35	660.0	1240.497	-1	135	0	1
2	3	36	735.0	1266.574	-1	135	0	1
2	3	37	767.0	1289.449	-1	135	0	1
2	3	38	908.0	1319.276	-1	135	0	1
2	3	39	1055.0	1343.061	-1	82	0	1
2	3	40	1045.0	1351.195	-1	82	0	1
2	3	41	1155.0	1347.425	-1	82	0	1
2	3	42	1435.0	1342.888	-1	82	0	1
2	3	43	1557.0	1344.871	-1	87	0	1
2	3	44	1532.0	1350.906	-1	87	0	1
2	3	45	1498.0	1354.623	-1	87	0	1
2	3	46	1442.0	1344.257	-1	87	0	1
2	3	47	1408.0	1317.687	-1	87	0	1
2	3	48	1656.0	1276.475	-1	87	0	1
2	3	49	1637.0	1235.28	-1	87	0	1
2	3	50	1466.0	1202.021	-1	87	0	1
2	3	51	1302.0	1170.784	-1	87	0	1
2	3	52	1291.0	1141.376	-1	87	0	1
2	3	53	1374.0	1110.448	-1	87	0	1
2	3	54	1551.0	1081.04	-1	87	0	1
2	3	55	1708.0	1052.933	-1	87	0	1
2	3	56	1670.0	1025.657	-1	87	0	1
2	3	57	1710.0	998.0595	-1	87	0	1
2	3	58	1738.0	970.2141	-1	87	0	1
2	3	59	1696.0	945.3073	-1	87	0	1
2	3	60	1661.0	933.3083	-1	87	0	1
2	3	61	1549.0	942.0353	-1	87	0	1
2	3	62	1690.0	961.2908	-1	87	0	1
2	3	63	1900.0	984.1313	-1	87	0	1
2	3	64	2129.0	1007.639	-1	87	0	1
2	3	65	2161.0	1032.357	-1	87	0	1
2	3	66	2106.0	1055.976	-1	87	0	1
2	3	67	2274.0	1069.167	-1	87	0	1
2	3	68	2386.0	1065.889	-1	87	0	1
2	3	69	2466.0	1052.173	-1	87	0	1
2	3	70	2637.0	1038.194	-1	87	0	1
2	3	71	2505.0	1026.415	-1	87	0	1
1	4	26	503.0	1326.222	-1	72	0	1
1	4	27	510.0	1353.255	-1	72	0	1
1	4	28	515.0	1387.778	-1	72	0	1
1	4	29	524.0	1431.89	-1	1	0	1
1	4	30	531.0	1493.045	-1	1	0	1
1	4	31	536.0	1577.15	-1	1	0	1
1	4	32	548.0	1691.92	-1	1	0	1
1	4	33	566.0	1581.776	-1	76	0	1
1	4	34	698.0	1503.127	-1	76	0	1
2	4	35	794.0	1242.866	-1	135	0	1
2	4	36	836.0	1269.271	-1	135	0	1
2	4	37	839.0	1294.152	-1	135	0	1
2	4	38	980.0	1328.223	-1	82	0	1
2	4	39	987.0	1366.853	-1	82	0	1
2	4	40	977.0	1347.123	-1	82	0	1
2	4	41	1144.0	1331.886	-1	82	0	1
2	4	42	1285.0	1322.251	-1	82	0	1
2	4	43	1394.0	1319.494	-1	87	0	1
2	4	44	1368.0	1326.054	-1	87	0	1
2	4	45	1323.0	1344.069	-1	87	0	1
2	4	46	1357.0	1376.223	-1	87	0	1
2	4	47	1230.0	1307.493	-1	87	0	1
2	4	48	1424.0	1255.375	-1	87	0	1
2	4	49	1529.0	1215.426	-1	87	0	1
2	4	50	1372.0	1184.216	-1	87	0	1
2	4	51	1214.0	1157.114	-1	87	0	1
2	4	52	1211.0	1132.232	-1	87	0	1
2	4	53	1263.0	1107.479	-1	87	0	1
2	4	54	1482.0	1081.438	-1	87	0	1
2	4	55	1584.0	1055.27	-1	87	0	1
2	4	56	1489.0	1028.315	-1	87	0	1
2	4	57	1523.0	999.9654	-1	87	0	1
2	4	58	1548.0	969.6475	-1	87	0	1
2	4	59	1528.0	936.75	-1	87	0	1
2	4	60	1495.0	900.6295	-1	87	0	1
2	4	61	1493.0	928.7741	-1	87	0	1
2	4	62	1673.0	953.829	-1	87	0	1
2	4	63	1864.0	977.2618	-1	87	0	1
2	4	64	2071.0	1000.362	-1	87	0	1
2	4	65	2263.0	1024.944	-1	87	0	1
2	4	66	2251.0	1052.845	-1	87	0	1
2	4	67	2266.0	1086.06	-1	87	0	1
2	4	68	2425.0	1060.652	-1	87	0	1
2	4	69	2486.0	1040.853	-1	87	0	1
2	4	70	2638.0	1025.452	-1	87	0	1
2	4	71	2601.0	1013.531	-1	87	0	1
1	5	24	478.0	1251.392	-1	72	0	1
1	5	25	487.0	1264.304	-1	72	0	1
1	5	26	496.0	1279.164	-1	72	0	1
1	5	27	504.0	1296.137	-1	72	0	1
1	5	28	507.0	1317.234	-1	72	0	1
1	5	29	513.0	1348.34	-1	1	0	1
1	5	30	516.0	1392.005	-1	1	0	1
1	5	31	520.0	1446.514	-1	1	0	1
1	5	32	533.0	1483.686	-1	1	0	1
1	5	33	538.0	1456.039	-1	76	0	1
1	5	34	569.0	1404.339	-1	76	0	1
1	5	35	803.0	1366.097	-1	76	0	1
2	5	36	854.0	1260.488	-1	135	0	1
2	5	37	787.0	1289.085	-1	82	0	1
2	5	38	867.0	1318.328	-1	82	0	1
2	5	39	902.0	1327.758	-1	82	0	1
2	5	40	1079.0	1315.055	-1	82	0	1
2	5	41	1077.0	1297.38	-1	82	0	1
2	5	42	1158.0	1282.983	-1	82	0	1
2	5	43	1306.0	1274.021	-1	87	0	1
2	5	44	1327.0	1272.835	-1	87	0	1
2	5	45	1156.0	1278.126	-1	87	0	1
2	5	46	1198.0	1275.206	-1	87	0	1
2	5	47	1103.0	1246.036	-1	87	0	1
2	5	48	1199.0	1211.557	-1	87	0	1
2	5	49	1367.0	1182.939	-1	87	0	1
2	5	50	1278.0	1160.117	-1	87	0	1
2	5	51	1168.0	1141.087	-1	87	0	1
2	5	52	1169.0	1124.373	-1	87	0	1
2	5	53	1206.0	1105.132	-1	87	0	1
2	5	54	1340.0	1084.703	-1	87	0	1
2	5	55	1393.0	1063.872	-1	87	0	1
2	5	56	1390.0	1038.707	-1	87	0	1
2	5	57	1368.0	1012.26	-1	87	0	1
2	5	58	1340.0	984.6522	-1	87	0	1
2	5	59	1361.0	956.0548	-1	87	0	1
2	5	60	1505.0	937.0088	-1	87	0	1
2	5	61	1581.0	941.9009	-1	87	0	1
2	5	62	1634.0	958.3005	-1	87	0	1
2	5	63	1841.0	976.028	-1	87	0	1
2	5	64	2018.0	993.8666	-1	87	0	1
2	5	65	2182.0	1012.898	-1	87	0	1
2	5	66	2287.0	1032.834	-1	87	0	1
2	5	67	2372.0	1043.76	-1	87	0	1
2	5	68	2562.0	1034.524	-1	87	0	1
2	5	69	2591.0	1018.942	-1	87	0	1
2	5	70	2561.0	1006.132	-1	87	0	1
2	5	71	2563.0	996.0963	-1	87	0	1
1	6	22	459.0	1181.753	-1	72	0	1
1	6	23	467.0	1200.394	-1	72	0	1
1	6	24	474.0	1214.587	-1	72	0	1
1	6	25	481.0	1221.275	-1	72	0	1
1	6	26	487.0	1227.437	-1	72	0	1
1	6	27	493.0	1230.468	-1	72	0	1
1	6	28	499.0	1237.973	-1	1	0	1
1	6	29	501.0	1251.226	-1	1	0	1
1	6	30	505.0	1270.467	-1	1	0	1
1	6	31	509.0	1292.67	-1	1	0	1
1	6	32	516.0	1306.712	-1	1	0	1
1	6	33	516.0	1303.056	-1	76	0	1
1	6	34	541.0	1285.735	-1	76	0	1
1	6	35	622.0	1271.555	-1	76	0	1
2	6	36	688.0	1251.461	-1	82	0	1
2	6	37	712.0	1275.807	-1	82	0	1
2	6	38	734.0	1292.258	-1	82	0	1
2	6	39	815.0	1292.469	-1	82	0	1
2	6	40	964.0	1278.707	-1	82	0	1
2	6	41	964.0	1257.248	-1	82	0	1
2	6	42	1044.0	1236.127	-1	82	0	1
2	6	43	1165.0	1218.904	-1	82	0	1
2	6	44	1267.0	1206.423	-1	87	0	1
2	6	45	1132.0	1197.351	-1	87	0	1
2	6	46	1029.0	1185.987	-1	87	0	1
2	6	47	967.0	1169.256	-1	87	0	1
2	6	48	992.0	1154.45	-1	87	0	1
2	6	49	1117.0	1142.028	-1	87	0	1
2	6	50	1153.0	1132.39	-1	87	0	1
2	6	51	1153.0	1124.804	-1	87	0	1
2	6	52	1084.0	1116.642	-1	87	0	1
2	6	53	1163.0	1104.062	-1	87	0	1
2	6	54	1220.0	1088.495	-1	87	0	1
2	6	55	1288.0	1072.199	-1	87	0	1
2	6	56	1270.0	1052.204	-1	87	0	1
2	6	57	1177.0	1029.55	-1	87	0	1
2	6	58	1305.0	1005.96	-1	87	0	1
2	6	59	1498.0	983.1297	-1	87	0	1
2	6	60	1602.0	968.4236	-1	87	0	1
2	6	61	1551.0	964.4636	-1	87	0	1
2	6	62	1592.0	969.3905	-1	87	0	1
2	6	63	1675.0	977.9523	-1	87	0	1
2	6	64	1868.0	987.5429	-1	87	0	1
2	6	65	1978.0	997.6365	-1	87	0	1
2	6	66	2119.0	1005.41	-1	87	0	1
2	6	67	2327.0	1007.664	-1	87	0	1
2	6	68	2505.0	1002.166	-1	87	0	1
2	6	69	2653.0	992.0725	-1	87	0	1
2	6	70	2641.0	983.3889	-1	87	0	1
1	7	17	727.0	1114.252	-1	72	0	1
1	7	18	622.0	1118.058	-1	72	0	1
1	7	19	516.0	1123.449	-1	72	0	1
1	7	20	488.0	1130.742	-1	72	0	1
1	7	21	473.0	1140.316	-1	72	0	1
1	7	22	460.0	1152.782	-1	72	0	1
1	7	23	465.0	1168.797	-1	72	0	1
1	7	24	471.0	1177.492	-1	72	0	1
1	7	25	477.0	1177.79	-1	72	0	1
1	7	26	480.0	1172.33	-1	72	0	1
1	7	27	483.0	1164.13	-1	72	0	1
1	7	28	489.0	1157.085	-1	1	0	1
1	7	29	492.0	1151.937	-1	1	0	1
1	7	30	495.0	1149.436	-1	1	0	1
1	7	31	498.0	1149.554	-1	1	0	1
1	7	32	501.0	1153.816	-1	1	0	1
1	7	33	501.0	1159.606	-1	76	0	1
1	7	34	509.0	1165.97	-1	76	0	1
1	7	35	544.0	1174.613	-1	76	0	1
1	7	36	632.0	1186.911	-1	76	0	1
2	7	37	655.0	1259.122	-1	82	0	1
2	7	38	693.0	1267.697	-1	82	0	1
2	7	39	752.0	1261.841	-1	82	0	1
2	7	40	816.0	1244.099	-1	82	0	1
2	7	41	887.0	1216.87	-1	82	0	1
2	7	42	1019.0	1187.794	-1	82	0	1
2	7	43	1158.0	1160.611	-1	87	0	1
2	7	44	1217.0	1136.718	-1	87	0	1
2	7	45	1134.0	1117.439	-1	87	0	1
2	7	46	1072.0	1103.604	-1	87	0	1
2	7	47	929.0	1095.152	-1	87	0	1
2	7	48	819.0	1094.336	-1	87	0	1
2	7	49	878.0	1098.385	-1	87	0	1
2	7	50	1119.0	1103.276	-1	87	0	1
2	7	51	1098.0	1108.44	-1	87	0	1
2	7	52	1028.0	1109.536	-1	87	0	1
2	7	53	1104.0	1105.201	-1	87	0	1
2	7	54	1104.0	1095.693	-1	87	0	1
2	7	55	1100.0	1082.622	-1	87	0	1
2	7	56	1116.0	1067.303	-1	87	0	1
2	7	57	1118.0	1048.726	-1	87	0	1
2	7	58	1322.0	1029.265	-1	87	0	1
2	7	59	1427.0	1010.759	-1	87	0	1
2	7	60	1499.0	996.4071	-1	87	0	1
2	7	61	1491.0	986.8414	-1	87	0	1
2	7	62	1639.0	981.8804	-1	87	0	1
2	7	63	1692.0	980.5319	-1	87	0	1
2	7	64	1795.0	980.5231	-1	87	0	1
2	7	65	1897.0	980.7046	-1	87	0	1
2	7	66	2089.0	978.9336	-1	87	0	1
2	7	67	2179.0	975.5836	-1	87	0	1
2	7	68	2430.0	970.26	-1	87	0	1
2	7	69	2633.0	963.8869	-1	87	0	1
2	7	70	2620.0	959.2254	-1	87	0	1
2	7	71	2573.0	955.2138	-1	87	0	1
2	8	15	845.0	816.2281	-1	103	0	1
1	8	16	800.0	1093.811	-1	72	0	1
1	8	17	772.0	1094.64	-1	72	0	1
1	8	18	662.0	1096.628	-1	72	0	1
1	8	19	535.0	1100.033	-1	72	0	1
1	8	20	495.0	1105.158	-1	72	0	1
1	8	21	475.0	1112.35	-1	72	0	1
1	8	22	462.0	1122.15	-1	72	0	1
1	8	23	464.0	1135.152	-1	72	0	1
1	8	24	468.0	1141.82	-1	72	0	1
1	8	25	472.0	1136.413	-1	72	0	1
1	8	26	473.0	1120.649	-1	72	0	1
1	8	27	474.0	1101.588	-1	72	0	1
1	8	28	479.0	1080.896	-1	72	0	1
1	8	29	484.0	1059.23	-1	1	0	1
1	8	30	490.0	1038.467	-1	1	0	1
1	8	31	490.0	1021.782	-1	1	0	1
1	8	32	490.0	1019.298	-1	72	0	1
1	8	33	493.0	1031.603	-1	72	0	1
1	8	34	510.0	1055.401	-1	76	0	1
1	8	35	532.0	1084.253	-1	76	0	1
1	8	36	550.0	1114.069	-1	76	0	1
1	8	37	633.0	1142.972	-1	76	0	1
2	8	38	701.0	1247.479	-1	82	0	1
2	8	39	729.0	1237.067	-1	82	0	1
2	8	40	769.0	1213.755	-1	82	0	1
2	8	41	895.0	1179.501	-1	82	0	1
2	8	42	1058.0	1141.464	-1	87	0	1
2	8	43	1152.0	1103.591	-1	87	0	1
2	8	44	1128.0	1068.189	-1	87	0	1
2	8	45	1075.0	1040.426	-1	87	0	1
2	8	46	973.0	1024.848	-1	87	0	1
2	8	47	872.0	1023.294	-1	87	0	1
2	8	48	713.0	1035.75	-1	87	0	1
2	8	49	823.0	1055.443	-1	87	0	1
2	8	50	955.0	1074.922	-1	87	0	1
2	8	51	932.0	1093.176	-1	87	0	1
2	8	52	908.0	1105.326	-1	87	0	1
2	8	53	1033.0	1109.786	-1	87	0	1
2	8	54	1000.0	1106.078	-1	87	0	1
2	8	55	920.0	1096.249	-1	87	0	1
2	8	56	1024.0	1083.219	-1	87	0	1
2	8	57	1174.0	1068.171	-1	87	0	1
2	8	58	1285.0	1053.092	-1	87	0	1
2	8	59	1390.0	1037.516	-1	87	0	1
2	8	60	1399.0	1022.654	-1	87	0	1
2	8	61	1460.0	1008.069	-1	87	0	1
2	8	62	1622.0	994.414	-1	87	0	1
2	8	63	1691.0	983.4257	-1	87	0	1
2	8	64	1785.0	973.3028	-1	87	0	1
2	8	65	1968.0	963.671	-1	87	0	1
2	8	66	2190.0	953.6554	-1	87	0	1
2	8	67	2294.0	945.5548	-1	87	0	1
2	8	68	2408.0	939.9125	-1	87	0	1
2	8	69	2522.0	936.3371	-1	87	0	1
2	8	70	2483.0	935.3579	-1	87	0	1
2	8	71	2483.0	934.6591	-1	87	0	1
2	8	72	2456.0	933.6536	-1	87	0	1
2	9	12	983.0	748.0199	-1	103	0	1
2	9	13	933.0	765.2147	-1	103	0	1
2	9	14	913.0	791.0902	-1	103	0	1
2	9	15	868.0	812.5348	-1	103	0	1
1	9	16	869.0	1075.668	-1	72	0	1
1	9	17	805.0	1074.727	-1	72	0	1
1	9	18	694.0	1074.766	-1	72	0	1
1	9	19	559.0	1076.037	-1	72	0	1
1	9	20	504.0	1078.838	-1	72	0	1
1	9	21	477.0	1083.507	-1	72	0	1
1	9	22	461.0	1090.452	-1	72	0	1
1	9	23	460.0	1100.341	-1	72	0	1
1	9	24	465.0	1108.836	-1	72	0	1
1	9	25	467.0	1099.47	-1	72	0	1
1	9	26	467.0	1075.186	-1	72	0	1
1	9	27	468.0	1046.592	-1	72	0	1
1	9	28	469.0	1014.059	-1	72	0	1
1	9	29	476.0	978.372	-1	1	0	1
1	9	30	481.0	941.2952	-1	72	0	1
1	9	31	483.0	908.9874	-1	72	0	1
1	9	32	484.0	898.5401	-1	72	0	1
1	9	33	482.0	918.2524	-1	72	0	1
1	9	34	500.0	960.2877	-1	72	0	1
1	9	35	522.0	1007.647	-1	76	0	1
1	9	36	535.0	1052.602	-1	76	0	1
1	9	37	633.0	1093.563	-1	76	0	1
2	9	38	725.0	1232.714	-1	87	0	1
2	9	39	729.0	1219.56	-1	87	0	1
2	9	40	756.0	1189.578	-1	87	0	1
2	9	41	830.0	1146.712	-1	87	0	1
2	9	42	897.0	1099.895	-1	87	0	1
2	9	43	968.0	1051.716	-1	87	0	1
2	9	44	982.0	1003.862	-1	87	0	1
2	9	45	975.0	965.69	-1	87	0	1
2	9	46	871.0	946.7971	-1	87	0	1
2	9	47	693.0	952.9233	-1	87	0	1
2	9	48	627.0	982.1268	-1	87	0	1
2	9	49	696.0	1016.994	-1	87	0	1
2	9	50	678.0	1050.071	-1	87	0	1
2	9	51	786.0	1080.556	-1	87	0	1
2	9	52	911.0	1105.573	-1	87	0	1
2	9	53	977.0	1119.423	-1	87	0	1
2	9	54	818.0	1120.226	-1	87	0	1
2	9	55	927.0	1111.895	-1	87	0	1
2	9	56	1018.0	1098.739	-1	87	0	1
2	9	57	1138.0	1086.834	-1	87	0	1
2	9	58	1212.0	1076.685	-1	87	0	1
2	9	59	1281.0	1064.034	-1	87	0	1
2	9	60	1395.0	1049.038	-1	87	0	1
2	9	61	1533.0	1029.211	-1	87	0	1
2	9	62	1555.0	1007.823	-1	87	0	1
2	9	63	1609.0	988.2605	-1	87	0	1
2	9	64	1780.0	967.7979	-1	87	0	1
2	9	65	2029.0	946.9822	-1	87	0	1
2	9	66	2237.0	928.6253	-1	87	0	1
2	9	67	2404.0	915.7574	-1	87	0	1
2	9	68	2439.0	910.5692	-1	87	0	1
2	9	69	2321.0	911.0085	-1	87	0	1
2	9	70	2400.0	914.4458	-1	87	0	1
2	9	71	2380.0	915.7796	-1	87	0	1
2	9	72	2362.0	915.5524	-1	87	0	1
2	9	73	2395.0	916.1019	-1	87	0	1
2	10	9	1201.0	767.0459	-1	103	0	1
2	10	10	1167.0	740.7352	-1	103	0	1
2	10	11	1014.0	725.5228	-1	103	0	1
2	10	12	989.0	734.3701	-1	103	0	1
2	10	13	930.0	759.5117	-1	103	0	1
2	10	14	872.0	785.3472	-1	103	0	1
2	10	15	848.0	810.8723	-1	103	0	1
2	10	16	791.0	837.2751	-1	103	0	1
1	10	17	730.0	1223.086	-1	72	0	1
1	10	18	716.0	1052.769	-1	72	0	1
1	10	19	613.0	1051.772	-1	72	0	1
1	10	20	507.0	1052.1	-1	72	0	1
1	10	21	479.0	1054.112	-1	72	0	1
1	10	22	466.0	1058.212	-1	72	0	1
1	10	23	456.0	1064.997	-1	72	0	1
1	10	24	459.0	1074.536	-1	72	0	1
1	10	25	461.0	1068.67	-1	72	0	1
1	10	26	462.0	1038.105	-1	72	0	1
1	10	27	464.0	1000.9	-1	72	0	1
1	10	28	464.0	959.1113	-1	72	0	1
1	10	29	467.0	913.5258	-1	72	0	1
1	10	30	472.0	863.6408	-1	72	0	1
1	10	31	475.0	812.6012	-1	72	0	1
1	10	32	474.0	787.802	-1	72	0	1
1	10	33	471.0	823.8069	-1	72	0	1
1	10	34	486.0	888.897	-1	72	0	1
1	10	35	501.0	951.3799	-1	76	0	1
1	10	36	511.0	1007.582	-1	76	0	1
1	10	37	575.0	1057.317	-1	76	0	1
2	10	38	633.0	1220.472	-1	87	0	1
2	10	39	674.0	1210.797	-1	87	0	1
2	10	40	740.0	1171.735	-1	87	0	1
2	10	41	770.0	1119.801	-1	87	0	1
2	10	42	712.0	1065.944	-1	87	0	1
2	10	43	783.0	1010.206	-1	87	0	1
2	10	44	728.0	952.3886	-1	87	0	1
2	10	45	790.0	895.4177	-1	87	0	1
2	10	46	643.0	866.9382	-1	87	0	1
2	10	47	563.0	888.8824	-1	87	0	1
2	10	48	661.0	940.026	-1	87	0	1
2	10	49	580.0	988.3962	-1	87	0	1
2	10	50	673.0	1032.367	-1	87	0	1
2	10	51	790.0	1073.07	-1	87	0	1
2	10	52	824.0	1110.627	-1	87	0	1
2	10	53	847.0	1136.199	-1	87	0	1
2	10	54	766.0	1137.111	-1	87	0	1
2	10	55	966.0	1124.447	-1	87	0	1
2	10	56	1029.0	1112.503	-1	87	0	1
2	10	57	1166.0	1102.627	-1	87	0	1
2	10	58	1216.0	1095.546	-1	87	0	1
2	10	59	1291.0	1090.943	-1	87	0	1
2	10	60	1362.0	1077.653	-1	87	0	1
2	10	61	1488.0	1051.881	-1	87	0	1
2	10	62	1492.0	1023.714	-1	87	0	1
2	10	63	1573.0	996.0694	-1	87	0	1
2	10	64	1798.0	967.7762	-1	87	0	1
2	10	65	2010.0	937.3319	-1	87	0	1
2	10	66	2252.0	904.9836	-1	87	0	1
2	10	67	2505.0	884.4226	-1	87	0	1
2	10	68	2464.0	884.2043	-1	87	0	1
2	10	69	2324.0	899.1747	-1	87	0	1
2	10	70	2202.0	908.6788	-1	87	0	1
2	10	71	2316.0	911.4313	-1	87	0	1
2	10	72	2284.0	908.0835	-1	87	0	1
2	10	73	2331.0	900.867	-1	87	0	1
2	10	74	2346.0	902.1045	-1	87	0	1
2	10	75	2276.0	909.7127	-1	87	0	1
2	10	76	2152.0	917.9499	-1	87	0	1
2	11	5	1291.0	885.1239	-1	103	0	1
2	11	8	1291.0	802.8453	-1	103	0	1
2	11	9	1268.0	770.9168	-1	103	0	1
2	11	10	1185.0	736.4554	-1	103	0	1
2	11	11	972.0	701.1905	-1	103	0	1
2	11	12	942.0	731.9529	-1	103	0	1
2	11	13	948.0	761.1212	-1	103	0	1
2	11	14	847.0	788.8067	-1	103	0	1
2	11	15	804.0	815.1267	-1	103	0	1
2	11	16	783.0	840.1893	-1	103	0	1
1	11	17	675.0	1234.052	-1	72	0	1
1	11	18	586.0	1232.181	-1	72	0	1
1	11	19	568.0	1027.559	-1	72	0	1
1	11	20	511.0	1025.235	-1	72	0	1
1	11	21	485.0	1024.366	-1	72	0	1
1	11	22	470.0	1025.421	-1	72	0	1
1	11	23	458.0	1028.969	-1	72	0	1
1	11	24	455.0	1035.624	-1	72	0	1
1	11	25	455.0	1045.591	-1	72	0	1
1	11	26	456.0	1002.227	-1	72	0	1
1	11	27	456.0	960.1474	-1	72	0	1
1	11	28	457.0	916.7676	-1	72	0	1
1	11	29	460.0	869.5007	-1	3	0	1
1	11	30	463.0	815.9891	-1	3	0	1
1	11	31	465.0	754.4362	-1	3	0	1
1	11	32	465.0	684.034	-1	72	0	1
1	11	33	465.0	771.9261	-1	72	0	1
1	11	34	471.0	850.5622	-1	72	0	1
1	11	35	484.0	920.3154	-1	72	0	1
1	11	36	496.0	981.9618	-1	2	0	1
1	11	37	502.0	1036.322	-1	76	0	1
1	11	38	503.0	1084.102	-1	2	0	1
2	11	39	604.0	1212.213	-1	87	0	1
2	11	40	639.0	1155.244	-1	87	0	1
2	11	41	612.0	1099.032	-1	87	0	1
2	11	42	585.0	1042.305	-1	87	0	1
2	11	43	636.0	983.7969	-1	87	0	1
2	11	44	590.0	922.2956	-1	87	0	1
2	11	45	551.0	855.94	-1	87	0	1
2	11	46	556.0	783.217	-1	87	0	1
2	11	47	749.0	855.591	-1	87	0	1
2	11	48	849.0	918.2251	-1	87	0	1
2	11	49	680.0	973.1904	-1	87	0	1
2	11	50	620.0	1022.719	-1	87	0	1
2	11	51	666.0	1069.123	-1	87	0	1
2	11	52	660.0	1114.887	-1	87	0	1
2	11	53	687.0	1162.888	-1	87	0	1
2	11	54	753.0	1147.492	-1	87	0	1
2	11	55	962.0	1134.039	-1	87	0	1
2	11	56	1019.0	1122.651	-1	87	0	1
2	11	57	1163.0	1113.795	-1	87	0	1
2	11	58	1232.0	1108.212	-1	87	0	1
2	11	59	1245.0	1106.89	-1	87	0	1
2	11	60	1272.0	1111.037	-1	87	0	1
2	11	61	1387.0	1070.825	-1	87	0	1
2	11	62	1461.0	1036.928	-1	87	0	1
2	11	63	1527.0	1005.757	-1	87	0	1
2	11	64	1721.0	974.2265	-1	87	0	1
2	11	65	2000.0	939.5101	-1	87	0	1
2	11	66	2237.0	898.8975	-1	87	0	1
2	11	67	2373.0	849.7933	-1	87	0	1
2	11	68	2456.0	881.7413	-1	87	0	1
2	11	69	2330.0	903.3779	-1	87	0	1
2	11	70	2172.0	915.8391	-1	87	0	1
2	11	71	2181.0	919.9765	-1	87	0	1
2	11	72	2219.0	916.2743	-1	87	0	1
2	11	73	2196.0	904.8625	-1	87	0	1
2	11	74	2261.0	885.6132	-1	87	0	1
2	11	75	2252.0	907.7906	-1	87	0	1
2	11	76	2137.0	923.3827	-1	87	0	1
2	11	77	2218.0	933.7894	-1	87	0	1
2	11	78	2196.0	940.2843	-1	87	0	1
2	12	3	1343.0	941.6721	-1	103	0	1
2	12	4	1312.0	921.2264	-1	103	0	1
2	12	5	1290.0	898.9262	-1	103	0	1
2	12	6	1293.0	874.2575	-1	103	0	1
2	12	7	1341.0	846.0563	-1	103	0	1
2	12	8	1285.0	815.8709	-1	103	0	1
2	12	9	1213.0	784.6085	-1	103	0	1
2	12	10	1137.0	754.4976	-1	103	0	1
2	12	11	960.0	735.1808	-1	103	0	1
2	12	12	794.0	745.648	-1	103	0	1
2	12	13	774.0	772.0805	-1	103	0	1
2	12	14	737.0	798.6811	-1	103	0	1
2	12	15	716.0	824.4049	-1	103	0	1
2	12	16	807.0	849.0305	-1	103	0	1
2	12	17	759.0	872.5302	-1	103	0	1
1	12	18	607.0	1247.719	-1	72	0	1
1	12	19	516.0	1250.021	-1	72	0	1
1	12	20	497.0	998.5976	-1	72	0	1
1	12	21	489.0	994.5131	-1	72	0	1
1	12	22	477.0	991.982	-1	72	0	1
1	12	23	461.0	991.6259	-1	72	0	1
1	12	24	452.0	993.7019	-1	72	0	1
1	12	25	448.0	990.2517	-1	72	0	1
1	12	26	450.0	961.0921	-1	72	0	1
1	12	27	452.0	925.1494	-1	3	0	1
1	12	28	452.0	888.2848	-1	3	0	1
1	12	29	453.0	847.8419	-1	72	0	1
1	12	30	455.0	802.9225	-1	3	0	1
1	12	31	456.0	761.8608	-1	3	0	1
1	12	32	455.0	746.52	-1	72	0	1
1	12	33	458.0	782.1883	-1	72	0	1
1	12	34	461.0	849.4628	-1	72	0	1
2	12	39	476.0	1172.003	-1	87	0	1
2	12	40	499.0	1136.058	-1	87	0	1
2	12	41	496.0	1083.908	-1	87	0	1
2	12	42	502.0	1030.423	-1	87	0	1
2	12	43	535.0	975.1361	-1	87	0	1
2	12	44	562.0	918.083	-1	87	0	1
2	12	45	649.0	864.4045	-1	87	0	1
2	12	46	707.0	845.0089	-1	87	0	1
2	12	47	767.0	867.5596	-1	87	0	1
2	12	48	1024.0	920.8147	-1	87	0	1
2	12	49	880.0	972.8066	-1	87	0	1
2	12	50	827.0	1021.361	-1	87	0	1
2	12	51	837.0	1067.03	-1	87	0	1
2	12	52	813.0	1109.401	-1	87	0	1
2	12	53	846.0	1141.705	-1	87	0	1
2	12	54	698.0	1150.346	-1	87	0	1
2	12	55	794.0	1139.481	-1	87	0	1
2	12	56	931.0	1128.532	-1	87	0	1
2	12	57	1114.0	1119.647	-1	87	0	1
2	12	58	1116.0	1113.5	-1	87	0	1
2	12	59	1156.0	1110.704	-1	87	0	1
2	12	60	1283.0	1097.174	-1	87	0	1
2	12	61	1422.0	1073.738	-1	87	0	1
2	12	62	1472.0	1044.969	-1	87	0	1
2	12	63	1566.0	1017.121	-1	87	0	1
2	12	64	1737.0	988.5117	-1	87	0	1
2	12	65	1966.0	957.551	-1	87	0	1
2	12	66	2088.0	926.9895	-1	87	0	1
2	12	67	2165.0	906.7623	-1	87	0	1
2	12	68	2296.0	909.7442	-1	87	0	1
2	12	69	2236.0	925.8558	-1	87	0	1
2	12	70	2080.0	937.2691	-1	87	0	1
2	12	71	2066.0	941.7637	-1	87	0	1
2	12	72	2121.0	939.5313	-1	87	0	1
2	12	73	2080.0	931.7385	-1	87	0	1
2	12	74	2266.0	926.8645	-1	87	0	1
2	12	75	2147.0	931.0765	-1	87	0	1
2	12	76	2020.0	940.3177	-1	87	0	1
2	12	77	2168.0	947.2734	-1	87	0	1
2	12	78	2128.0	950.8253	-1	87	0	1
2	13	1	1480.0	986.3454	-1	103	0	1
2	13	2	1386.0	975.3303	-1	103	0	1
2	13	3	1329.0	960.156	-1	103	0	1
2	13	4	1316.0	940.3193	-1	103	0	1
2	13	5	1303.0	918.3445	-1	103	0	1
2	13	6	1250.0	892.7909	-1	103	0	1
2	13	7	1230.0	864.9023	-1	103	0	1
2	13	8	1206.0	835.5551	-1	103	0	1
2	13	9	1186.0	807.4015	-1	103	0	1
2	13	10	1062.0	782.1602	-1	103	0	1
2	13	11	858.0	767.2125	-1	103	0	1
2	13	12	911.0	769.2691	-1	103	0	1
2	13	13	864.0	790.1158	-1	103	0	1
2	13	14	851.0	814.2484	-1	103	0	1
2	13	15	721.0	838.309	-1	103	0	1
2	13	16	658.0	861.655	-1	103	0	1
2	13	17	629.0	884.0399	-1	103	0	1
1	13	18	571.0	1263.65	-1	72	0	1
1	13	19	606.0	1265.309	-1	72	0	1
1	13	20	511.0	1265.714	-1	72	0	1
1	13	21	479.0	965.1663	-1	72	0	1
1	13	22	466.0	958.5002	-1	72	0	1
1	13	23	459.0	953.5541	-1	72	0	1
1	13	24	450.0	950.9735	-1	72	0	1
1	13	25	445.0	944.4746	-1	72	0	1
1	13	26	444.0	928.1747	-1	3	0	1
1	13	27	446.0	904.4801	-1	3	0	1
1	13	28	447.0	878.1931	-1	3	0	1
1	13	29	449.0	851.3053	-1	72	0	1
1	13	30	448.0	824.606	-1	3	0	1
1	13	31	447.0	807.4151	-1	3	0	1
1	13	32	451.0	805.0846	-1	3	0	1
1	13	33	454.0	824.0183	-1	72	0	1
1	13	36	460.0	987.6435	-1	72	0	1
1	13	37	462.0	1040.005	-1	72	0	1
1	13	38	465.0	1087.806	-1	2	0	1
1	13	39	483.0	1130.178	-1	76	0	1
2	13	40	527.0	1122.806	-1	87	0	1
2	13	41	501.0	1078.787	-1	87	0	1
2	13	42	560.0	1030.901	-1	87	0	1
2	13	43	716.0	982.7578	-1	87	0	1
2	13	44	731.0	937.5831	-1	87	0	1
2	13	45	732.0	906.7434	-1	87	0	1
2	13	46	866.0	896.7593	-1	87	0	1
2	13	47	911.0	909.9858	-1	87	0	1
2	13	48	1039.0	941.9127	-1	87	0	1
2	13	49	976.0	984.5562	-1	87	0	1
2	13	50	959.0	1027.763	-1	87	0	1
2	13	51	1096.0	1068.708	-1	87	0	1
2	13	52	1039.0	1105.061	-1	87	0	1
2	13	53	1106.0	1131.071	-1	87	0	1
2	13	54	935.0	1142.653	-1	87	0	1
2	13	55	760.0	1141.388	-1	87	0	1
2	13	56	913.0	1130.68	-1	87	0	1
2	13	57	1024.0	1120.791	-1	87	0	1
2	13	58	987.0	1112.29	-1	87	0	1
2	13	59	1100.0	1101.212	-1	87	0	1
2	13	60	1262.0	1087.363	-1	87	0	1
2	13	61	1470.0	1069.911	-1	87	0	1
2	13	62	1592.0	1050.084	-1	87	0	1
2	13	63	1688.0	1030.326	-1	87	0	1
2	13	64	1760.0	1009.67	-1	87	0	1
2	13	65	1910.0	989.4199	-1	87	0	1
2	13	66	1968.0	971.6447	-1	87	0	1
2	13	67	2041.0	960.0469	-1	87	0	1
2	13	68	2090.0	958.9872	-1	87	0	1
2	13	69	2194.0	964.4272	-1	87	0	1
2	13	70	2084.0	971.4781	-1	87	0	1
2	13	71	1953.0	975.3919	-1	87	0	1
2	13	72	1944.0	975.4591	-1	87	0	1
2	13	73	2012.0	972.6711	-1	87	0	1
2	13	74	2137.0	969.4761	-1	87	0	1
2	13	75	1982.0	968.3843	-1	87	0	1
2	13	76	2042.0	967.4489	-1	87	0	1
2	13	77	2075.0	968.1777	-1	87	0	1
2	13	78	2094.0	966.8676	-1	87	0	1
2	13	79	2135.0	964.1262	-1	87	0	1
2	13	80	2063.0	963.4843	-1	87	0	1
2	14	1	1402.0	997.6837	-1	103	0	1
2	14	2	1368.0	995.8399	-1	103	0	1
2	14	3	1320.0	982.4799	-1	103	0	1
2	14	4	1316.0	963.8843	-1	103	0	1
2	14	5	1251.0	942.0769	-1	103	0	1
2	14	6	1221.0	916.166	-1	103	0	1
2	14	7	1204.0	888.0874	-1	103	0	1
2	14	8	1244.0	859.8605	-1	103	0	1
2	14	9	1206.0	833.5705	-1	103	0	1
2	14	10	1008.0	810.579	-1	103	0	1
2	14	11	1009.0	796.9284	-1	103	0	1
2	14	12	1068.0	796.0581	-1	103	0	1
2	14	13	1082.0	812.1309	-1	103	0	1
2	14	14	1058.0	833.8612	-1	103	0	1
2	14	15	926.0	855.9316	-1	103	0	1
2	14	16	816.0	877.5755	-1	103	0	1
2	14	17	780.0	898.4213	-1	103	0	1
1	14	18	717.0	1280.053	-1	72	0	1
1	14	19	652.0	1281.296	-1	72	0	1
1	14	20	559.0	1280.684	-1	72	0	1
1	14	21	488.0	1278.401	-1	72	0	1
1	14	22	469.0	926.2186	-1	72	0	1
1	14	23	456.0	916.3835	-1	72	0	1
1	14	24	449.0	910.2077	-1	72	0	1
1	14	25	444.0	904.8809	-1	5	0	1
1	14	26	440.0	897.8512	-1	3	0	1
1	14	27	442.0	888.2243	-1	3	0	1
1	14	28	443.0	877.1526	-1	72	0	1
1	14	29	443.0	865.4761	-1	3	0	1
1	14	30	443.0	854.5359	-1	3	0	1
1	14	31	443.0	853.0788	-1	3	0	1
1	14	32	445.0	860.4707	-1	72	0	1
1	14	35	446.0	963.5988	-1	72	0	1
1	14	36	449.0	1012.172	-1	72	0	1
1	14	37	455.0	1060.899	-1	2	0	1
1	14	38	462.0	1106.649	-1	72	0	1
1	14	39	481.0	1147.372	-1	76	0	1
2	14	40	589.0	1115.285	-1	87	0	1
2	14	41	681.0	1080.519	-1	87	0	1
2	14	42	620.0	1042.283	-1	87	0	1
2	14	43	695.0	1003.529	-1	87	0	1
2	14	44	666.0	967.5989	-1	102	0	1
2	14	45	714.0	945.4585	-1	102	0	1
2	14	46	828.0	940.1479	-1	102	0	1
2	14	47	917.0	950.1202	-1	102	0	1
2	14	48	1060.0	973.0047	-1	87	0	1
2	14	49	1204.0	1006.44	-1	87	0	1
2	14	50	1119.0	1042.333	-1	87	0	1
2	14	51	1313.0	1077.475	-1	87	0	1
2	14	52	1315.0	1107.704	-1	87	0	1
2	14	53	1254.0	1128.732	-1	87	0	1
2	14	54	1183.0	1138.561	-1	87	0	1
2	14	55	917.0	1138.411	-1	87	0	1
2	14	56	793.0	1128.825	-1	87	0	1
2	14	57	858.0	1116.74	-1	87	0	1
2	14	58	951.0	1104.874	-1	87	0	1
2	14	59	1076.0	1092.051	-1	87	0	1
2	14	60	1217.0	1079.49	-1	87	0	1
2	14	61	1398.0	1067.073	-1	87	0	1
2	14	62	1441.0	1054.907	-1	87	0	1
2	14	63	1555.0	1044.296	-1	87	0	1
2	14	64	1720.0	1034.213	-1	87	0	1
2	14	65	1858.0	1025.197	-1	87	0	1
2	14	66	1926.0	1016.99	-1	87	0	1
2	14	67	1934.0	1011.728	-1	87	0	1
2	14	68	2004.0	1010.57	-1	87	0	1
2	14	69	2110.0	1012.384	-1	87	0	1
2	14	70	2007.0	1015.707	-1	87	0	1
2	14	71	1907.0	1018.431	-1	87	0	1
2	14	72	1768.0	1019.666	-1	87	0	1
2	14	73	1870.0	1018.149	-1	87	0	1
2	14	74	1918.0	1014.276	-1	87	0	1
2	14	75	1859.0	1008.583	-1	87	0	1
2	14	76	2005.0	1001.116	-1	87	0	1
2	14	77	1964.0	992.8171	-1	87	0	1
2	14	78	1922.0	984.5677	-1	87	0	1
2	14	79	1999.0	977.7665	-1	87	0	1
2	14	80	2030.0	970.5706	-1	87	0	1
2	15	1	1378.0	1017.679	-1	103	0	1
2	15	2	1327.0	1013.817	-1	103	0	1
2	15	3	1292.0	1007.312	-1	103	0	1
2	15	4	1249.0	990.6066	-1	103	0	1
2	15	5	1240.0	968.9016	-1	103	0	1
2	15	6	1254.0	941.8971	-1	103	0	1
2	15	7	1203.0	912.7935	-1	103	0	1
2	15	8	1154.0	885.015	-1	103	0	1
2	15	9	1110.0	859.9312	-1	103	0	1
2	15	10	1164.0	837.8324	-1	103	0	1
2	15	11	1136.0	824.1211	-1	103	0	1
2	15	12	1180.0	821.9835	-1	103	0	1
2	15	13	1194.0	836.6212	-1	103	0	1
2	15	14	1150.0	856.4787	-1	103	0	1
2	15	15	1064.0	877.1193	-1	103	0	1
2	15	16	1019.0	896.9505	-1	103	0	1
2	15	17	959.0	916.0124	-1	103	0	1
2	15	18	795.0	934.1728	-1	103	0	1
1	15	19	609.0	1297.8	-1	72	0	1
1	15	20	559.0	1295.986	-1	72	0	1
1	15	21	537.0	1292.354	-1	72	0	1
1	15	22	498.0	1287.52	-1	72	0	1
1	15	23	458.0	881.7896	-1	72	0	1
1	15	24	449.0	871.9225	-1	5	0	1
1	15	25	441.0	868.5048	-1	5	0	1
1	15	26	437.0	869.6995	-1	3	0	1
1	15	27	434.0	872.7949	-1	72	0	1
1	15	28	436.0	876.5825	-1	72	0	1
1	15	29	438.0	880.5444	-1	72	0	1
1	15	30	438.0	884.9817	-1	3	0	1
1	15	31	438.0	897.2973	-1	72	0	1
1	15	32	440.0	913.8901	-1	72	0	1
1	15	34	443.0	964.3765	-1	72	0	1
1	15	35	446.0	1002.783	-1	2	0	1
1	15	36	448.0	1045.727	-1	2	0	1
1	15	37	453.0	1090.587	-1	2	0	1
1	15	38	458.0	1134.712	-1	76	0	1
1	15	39	462.0	1173.612	-1	2	0	1
1	15	40	504.0	1203.4	-1	76	0	1
2	15	41	601.0	1085.537	-1	102	0	1
2	15	42	653.0	1055.569	-1	87	0	1
2	15	43	615.0	1025.222	-1	87	0	1
2	15	44	665.0	996.9523	-1	102	0	1
2	15	45	792.0	979.516	-1	102	0	1
2	15	46	918.0	976.7711	-1	102	0	1
2	15	47	1078.0	985.1189	-1	102	0	1
2	15	48	1187.0	1003.087	-1	102	0	1
2	15	49	1372.0	1030.153	-1	87	0	1
2	15	50	1344.0	1060.285	-1	87	0	1
2	15	51	1516.0	1090.481	-1	87	0	1
2	15	52	1525.0	1116.165	-1	87	0	1
2	15	53	1438.0	1133.4	-1	87	0	1
2	15	54	1267.0	1140.156	-1	87	0	1
2	15	55	1096.0	1137.431	-1	87	0	1
2	15	56	908.0	1126.139	-1	87	0	1
2	15	57	840.0	1111.609	-1	87	0	1
2	15	58	1077.0	1096.534	-1	87	0	1
2	15	59	1147.0	1082.605	-1	87	0	1
2	15	60	1286.0	1071.585	-1	87	0	1
2	15	61	1368.0	1064.129	-1	87	0	1
2	15	62	1492.0	1059.84	-1	87	0	1
2	15	63	1614.0	1058.914	-1	87	0	1
2	15	64	1666.0	1059.572	-1	87	0	1
2	15	65	1792.0	1061.467	-1	87	0	1
2	15	66	1819.0	1062.945	-1	87	0	1
2	15	67	1865.0	1063.824	-1	87	0	1
2	15	68	1895.0	1063.612	-1	87	0	1
2	15	69	1950.0	1063.096	-1	87	0	1
2	15	70	1945.0	1063.316	-1	87	0	1
2	15	71	1833.0	1064.886	-1	87	0	1
2	15	72	1685.0	1067.288	-1	87	0	1
2	15	73	1661.0	1067.028	-1	87	0	1
2	15	74	1772.0	1061.997	-1	87	0	1
2	15	75	1875.0	1051.481	-1	87	0	1
2	15	76	1936.0	1036.623	-1	87	0	1
2	15	77	1882.0	1019.846	-1	87	0	1
2	15	78	1864.0	1004.265	-1	87	0	1
2	15	79	1987.0	989.6564	-1	87	0	1
2	15	80	2103.0	977.2265	-1	87	0	1
2	15	81	2065.0	967.8801	-1	87	0	1
2	15	82	2035.0	962.0899	-1	87	0	1
2	16	1	1366.0	1040.104	-1	103	0	1