200 70 -9999.0 # HYD package for MODFLOW-2005 generated by Flopy 3.6.0
BAS HD C 2 2466.168212890625 122683.1875 Son0001 
BAS HD C 2 2752.66015625 122802.75 Son0002 
BAS HD C 4 16115.9892578125 135497.8125 Son0004 
BAS HD C 1 16247.478515625 135155.515625 Son0005 
BAS HD C 1 16246.486328125 134755.5 Son0006 
BAS HD C 1 16106.1142578125 134846.984375 Son0007 
BAS HD C 1 13809.75 133797.234375 Son0008 
BAS HD C 1 13469.1103515625 133034.875 Son0009 
BAS HD C 1 12833.4853515625 129517.4296875 Son0010 
BAS HD C 1 13640.470703125 129679.8046875 Son0011 
BAS HD C 4 14654.08984375 132296.96875 Son0012 
BAS HD C 1 14368.556640625 131616.484375 Son0014 
BAS HD C 1 13667.2041015625 128970.390625 Son0016 
BAS HD C 1 11985.6181640625 128680.828125 Son0017 
BAS HD C 4 10735.326171875 124456.5 Son0018 
BAS HD C 2 22371.546875 132023.0625 Son0021 
BAS HD C 1 16021.001953125 130146.109375 Son0022 
BAS HD C 4 16858.333984375 130157.5 Son0023 
BAS HD C 4 16085.8115234375 129453.71875 Son0024 
BAS HD C 1 18563.0234375 128011.1484375 Son0025 
BAS HD C 1 13353.818359375 129003.078125 Son0027 
BAS HD C 1 16211.541015625 125272.5078125 Son0028 
BAS HD C 1 17872.146484375 123142.4375 Son0029 
BAS HD C 1 14858.7734375 120911.6875 Son0030 
BAS HD C 1 14391.6630859375 118645.2578125 Son0031 
BAS HD C 1 14142.99609375 119795.0546875 Son0034 
BAS HD C 1 12146.384765625 112157.1484375 Son0036 
BAS HD C 2 7950.31982421875 111106.0390625 Son0037 
BAS HD C 4 11239.93359375 110382.65625 Son0038 
BAS HD C 4 12119.833984375 111668.8203125 Son0039 
BAS HD C 2 3279.216552734375 88438.1875 Son0040 
BAS HD C 2 2860.485595703125 89117.828125 Son0041 
BAS HD C 2 398.76031494140625 90929.7421875 Son0042 
BAS HD C 2 367.5260925292969 86871.3203125 Son0043 
BAS HD C 2 1394.6099853515625 82022.5546875 Son0044 
BAS HD C 2 1390.278564453125 81984.1953125 Son0045 
BAS HD C 2 541.984375 81316.578125 Son0046 
BAS HD C 4 16404.7890625 116709.984375 Son0047 
BAS HD C 1 16851.76953125 116085.5546875 Son0048 
BAS HD C 1 19355.81640625 112266.8203125 Son0049 
BAS HD C 4 18883.8515625 110789.015625 Son0050 
BAS HD C 2 5849.58154296875 88241.2109375 Son0051 
BAS HD C 2 3444.846923828125 83952.9140625 Son0052 
BAS HD C 1 20831.21875 112067.4921875 Son0053 
BAS HD C 4 22737.177734375 107907.25 Son0054 
BAS HD C 1 21047.392578125 109225.28125 Son0055 
BAS HD C 1 21077.20703125 111564.2890625 Son0056 
BAS HD C 1 18625.029296875 108225.109375 Son0057 
BAS HD C 1 20094.60546875 106130.609375 Son0058 
BAS HD C 4 21641.126953125 106842.4140625 Son0059 
BAS HD C 1 18325.755859375 107634.734375 Son0060 
BAS HD C 1 16816.822265625 96915.1015625 Son0061 
BAS HD C 4 13053.9521484375 87261.765625 Son0062 
BAS HD C 4 13008.8056640625 85281.8828125 Son0063 
BAS HD C 2 8095.06884765625 79565.1171875 Son0064 
BAS HD C 4 11328.3056640625 79162.390625 Son0065 
BAS HD C 4 10829.5546875 79020.46875 Son0066 
BAS HD C 4 11256.6162109375 79092.2109375 Son0068 
BAS HD C 1 16612.61328125 87433.5546875 Son0069 
BAS HD C 1 13297.31640625 79341.6796875 Son0070 
BAS HD C 1 16521.865234375 80770.3125 Son0074 
BAS HD C 1 15159.119140625 82032.140625 Son0075 
BAS HD C 1 15536.111328125 77467.921875 Son0076 
BAS HD C 4 11951.6396484375 79012.2890625 Son0077 
BAS HD C 1 15139.80859375 81839.7578125 Son0078 
BAS HD C 1 16065.5732421875 79223.0 Son0080 
BAS HD C 4 12728.9658203125 77456.3671875 Son0081 
BAS HD C 4 10782.87890625 77533.3984375 Son0083 
BAS HD C 4 10870.4130859375 76941.109375 Son0084 
BAS HD C 4 10904.4599609375 77005.9609375 Son0087 
BAS HD C 1 12100.4326171875 76429.859375 Son0088 
BAS HD C 1 12594.4443359375 68464.640625 Son0089 
BAS HD C 1 10995.3798828125 71572.765625 Son0091 
BAS HD C 1 11941.8212890625 71086.03125 Son0092 
BAS HD C 1 11908.345703125 70862.1015625 Son0093 
BAS HD C 1 10836.5888671875 71205.3671875 Son0094 
BAS HD C 4 11658.51171875 69461.359375 Son0095 
BAS HD C 4 9361.517578125 69866.0 Son0096 
BAS HD C 2 22121.626953125 89701.28125 Son0099 
BAS HD C 2 21668.685546875 87713.46875 Son0100 
BAS HD C 2 22171.994140625 85038.1328125 Son0101 
BAS HD C 2 21933.134765625 87030.6328125 Son0102 
BAS HD C 2 22910.857421875 85095.7890625 Son0103 
BAS HD C 2 21720.134765625 87785.3671875 Son0104 
BAS HD C 2 22891.869140625 83300.4921875 Son0105 
BAS HD C 2 24009.587890625 81851.5859375 Son0106 
BAS HD C 1 20874.4765625 81842.8203125 Son0107 
BAS HD C 1 21587.359375 81495.0234375 Son0108 
BAS HD C 4 20185.5546875 79192.359375 Son0111 
BAS HD C 4 20876.4609375 77193.5 Son0112 
BAS HD C 1 20255.880859375 77796.875 Son0113 
BAS HD C 1 20248.388671875 77392.4609375 Son0114 
BAS HD C 1 21239.447265625 75199.78125 Son0115 
BAS HD C 4 18533.654296875 72092.4140625 Son0120 
BAS HD C 2 26071.388671875 86071.8125 Son0123 
BAS HD C 2 24551.2421875 82075.765625 Son0124 
BAS HD C 2 25662.15625 82476.5546875 Son0125 
BAS HD C 4 24753.5234375 74592.875 Son0126 
BAS HD C 1 25208.419921875 73972.84375 Son0127 
BAS HD C 4 25804.09765625 74142.5859375 Son0128 
BAS HD C 2 25338.267578125 75758.0234375 Son0129 
BAS HD C 1 21414.90625 74667.75 Son0131 
BAS HD C 1 21844.2265625 74458.9140625 Son0132 
BAS HD C 1 21795.62109375 74384.921875 Son0133 
BAS HD C 1 23652.041015625 73396.015625 Son0134 
BAS HD C 1 23304.453125 73538.0625 Son0135 
BAS HD C 1 24095.66796875 72715.6015625 Son0136 
BAS HD C 1 23678.5078125 72886.96875 Son0137 
BAS HD C 1 24328.052734375 72592.1640625 Son0138 
BAS HD C 1 26244.923828125 73470.8671875 Son0139 
BAS HD C 1 23594.203125 69108.328125 Son0145 
BAS HD C 1 21008.416015625 68271.265625 Son0146 
BAS HD C 1 21331.275390625 68001.625 Son0147 
BAS HD C 1 21034.076171875 65436.2734375 Son0152 
BAS HD C 4 19655.958984375 67710.7734375 Son0154 
BAS HD C 1 22761.98046875 65573.1640625 Son0155 
BAS HD C 1 15408.5234375 54889.5 Son0157 
BAS HD C 1 15285.46484375 54934.546875 Son0158 
BAS HD C 1 15027.78515625 52983.15625 Son0159 
BAS HD C 1 13635.224609375 49848.3671875 Son0160 
BAS HD C 1 14918.4404296875 51136.96875 Son0161 
BAS HD C 1 14804.6640625 49804.3984375 Son0162 
BAS HD C 2 30940.06640625 78607.765625 Son0164 
BAS HD C 4 29035.94140625 71534.46875 Son0166 
BAS HD C 4 28813.015625 70478.2109375 Son0167 
BAS HD C 1 26931.69140625 73077.9453125 Son0168 
BAS HD C 4 27378.33203125 74485.765625 Son0169 
BAS HD C 4 26764.18359375 74334.09375 Son0170 
BAS HD C 4 30571.181640625 72748.0859375 Son0171 
BAS HD C 4 30828.75390625 71980.4140625 Son0172 
BAS HD C 4 28156.03515625 66543.6015625 Son0174 
BAS HD C 1 27272.50390625 70727.9453125 Son0175 
BAS HD C 1 23369.162109375 65551.4921875 Son0176 
BAS HD C 4 23544.4921875 61801.12890625 Son0177 
BAS HD C 1 22162.5 56567.59765625 Son0179 
BAS HD C 4 25313.205078125 60198.77734375 Son0180 
BAS HD C 2 38001.578125 79079.078125 Son0183 
BAS HD C 2 37268.1953125 78861.3203125 Son0184 
BAS HD C 2 39098.7109375 79327.109375 Son0185 
BAS HD C 2 35195.57421875 78009.4375 Son0186 
BAS HD C 2 35195.3671875 78789.5390625 Son0187 
BAS HD C 4 29811.216796875 67240.234375 Son0188 
BAS HD C 4 30914.775390625 59120.50390625 Son0189 
BAS HD C 1 27487.466796875 52810.1484375 Son0191 
BAS HD C 2 38764.72265625 69788.1171875 Son0192 
BAS HD C 4 35429.73046875 41985.62890625 Son0193 
BAS HD C 1 18064.23046875 123787.953125 Son0201 
BAS HD C 1 20837.150390625 97314.7421875 Son0224 
BAS HD C 2 22127.197265625 89712.328125 Son0235 
BAS HD C 1 16300.357421875 53176.0234375 Son0265 
BAS HD C 1 14701.23828125 48996.34375 Son0267 
BAS HD C 1 20425.76171875 57358.46484375 Son0277 
BAS HD C 1 21408.646484375 58840.015625 Son0279 
BAS HD C 1 22345.8203125 55739.78125 Son0286 
BAS HD C 1 28034.220703125 68180.9453125 Son0288 
BAS HD C 1 17508.544921875 65663.7734375 Son0315 
BAS HD C 1 17516.916015625 65663.59375 Son0316 
BAS HD C 4 17517.47265625 65663.8359375 Son0317 
BAS HD C 4 17517.146484375 65663.921875 Son0318 
BAS HD C 4 17517.248046875 65663.515625 Son0319 
BAS HD C 1 17827.73828125 65645.3828125 Son0320 
BAS HD C 1 22994.5625 59291.51953125 Son0321 
BAS HD C 4 22994.443359375 59291.12890625 Son0322 
BAS HD C 4 22994.82421875 59291.25390625 Son0323 
BAS HD C 4 22994.271484375 59291.4296875 Son0324 
BAS HD C 4 27032.36328125 67457.71875 Son0328 
BAS HD C 1 15780.755859375 79827.8671875 Son0331 
BAS HD C 4 9879.0107421875 72025.734375 Son0332 
BAS HD C 1 23409.287109375 77524.703125 Son0333 
BAS HD C 1 23399.619140625 77510.2265625 Son0334 
BAS HD C 1 23668.982421875 77025.515625 Son0335 
BAS HD C 1 23046.966796875 77158.5 Son0336 
BAS HD C 1 19235.224609375 79229.2578125 Son0339 
BAS HD C 1 19735.4140625 75903.5390625 Son0340 
BAS HD C 1 22871.013671875 68771.109375 Son0341 
BAS HD C 1 22875.234375 68778.015625 Son0342 
BAS HD C 1 22942.41015625 69087.3046875 Son0343 
BAS HD C 1 17773.19921875 79657.4140625 Son0344 
BAS HD C 4 17773.19921875 79657.4140625 Son0345 
BAS HD C 1 17919.826171875 129408.40625 Son0347 
BAS HD C 1 12091.103515625 76435.5234375 Son0348 
BAS HD C 1 14082.076171875 75352.2265625 Son0549 
BAS HD C 1 14079.10546875 75355.4921875 Son0550 
BAS HD C 1 16725.83203125 104509.796875 Son0551 
BAS HD C 1 17721.212890625 95056.3671875 Son0552 
BAS HD C 1 18882.33203125 87905.1953125 Son0553 
BAS HD C 1 18059.908203125 70151.1875 Son0554 
BAS HD C 1 14082.076171875 75352.2265625 Son0556 
BAS HD C 1 14079.10546875 75355.4921875 Son0557 
BAS HD C 4 28841.361328125 68547.9765625 Son0559 
BAS HD C 4 28841.361328125 68547.9765625 Son0560 
BAS HD C 4 30433.107421875 57364.69140625 Son0561 
BAS HD C 4 30433.107421875 57364.69140625 Son0562 
BAS HD C 1 12133.5771484375 69992.03125 Son0563 
BAS HD C 4 12133.5771484375 69992.03125 Son0564 
BAS HD C 4 12133.5771484375 69992.03125 Son0565 
BAS HD C 4 9418.4384765625 29264.197265625 WRM22-0063_2 
BAS HD C 4 23970.884765625 59490.3046875 WRM23-0004_1 
BAS HD C 4 23962.453125 58197.5390625 WRM23-0005_1 
BAS HD C 4 24760.505859375 59262.31640625 WRM23-0009_1 
