#Well Package Input
#
BEGIN LINEFEED
	./mni.txt
	./rural_dom.txt
END
BEGIN OPTIONS
	WELL_CBC	50
END
