# MODFLOW2000 Discretization File
 6  275  85  586  4  1
 0 0 0 0 0 0
CONSTANT    500.0000                 DELTA-X or C
CONSTANT    500.0000         		     DELTA-Y or R
OPEN/CLOSE model_arrays\top1.txt                      1.0       (FREE) -10                                             Top1
OPEN/CLOSE model_arrays\bot1.txt                      1.0       (FREE) -10                                             bot1
OPEN/CLOSE model_arrays\bot2.txt                      1.0       (FREE) -10                                             bot2
OPEN/CLOSE model_arrays\bot3.txt                      1.0       (FREE) -10                                             bot3
OPEN/CLOSE model_arrays\bot4.txt                      1.0       (FREE) -10                                             bot4
OPEN/CLOSE model_arrays\bot5.txt                      1.0       (FREE) -10                                             bot5
OPEN/CLOSE model_arrays\lay6thin.txt                      1.0       (FREE) -10                                             bot6
31  1  1.200000  TR   STARTTIME 1969.91507
  31.000000  1  1.000000  TR
  28  1  1.000000  TR
  31.000000  1  1.000000  TR
  30.000000  1  1.000000  TR
  31.000000  1  1.000000  TR
  30.000000  1  1.000000  TR
  31.000000  1  1.000000  TR
  31.000000  1  1.000000  TR
  30.000000  1  1.000000  TR
  31.000000  1  1.000000  TR
  30.000000  1  1.000000  TR
  31.000000  1  1.000000  TR
  31.000000  1  1.000000  TR
  28.000000  1  1.000000  TR
  31.000000  1  1.000000  TR
  30.000000  1  1.000000  TR
  31.000000  1  1.000000  TR
  30.000000  1  1.000000  TR
  31.000000  1  1.000000  TR
  31.000000  1  1.000000  TR
  30.000000  1  1.000000  TR
  31.000000  1  1.000000  TR
  30.000000  1  1.000000  TR
  31.000000  1  1.000000  TR
  31.000000  1  1.000000  TR
  29.000000  1  1.000000  TR
  31.000000  1  1.000000  TR
  30.000000  1  1.000000  TR
  31.000000  1  1.000000  TR
  30.000000  1  1.000000  TR
  31.000000  1  1.000000  TR
  31.000000  1  1.000000  TR
  30.000000  1  1.000000  TR
  31.000000  1  1.000000  TR
  30.000000  1  1.000000  TR
  31.000000  1  1.000000  TR
  31.000000  1  1.000000  TR
  28.000000  1  1.000000  TR
  31.000000  1  1.000000  TR
  30.000000  1  1.000000  TR
  31.000000  1  1.000000  TR
  30.000000  1  1.000000  TR
  31.000000  1  1.000000  TR
  31.000000  1  1.000000  TR
  30.000000  1  1.000000  TR
  31.000000  1  1.000000  TR
  30.000000  1  1.000000  TR
  31.000000  1  1.000000  TR
  31.000000  1  1.000000  TR
  28.000000  1  1.000000  TR
  31.000000  1  1.000000  TR
  30.000000  1  1.000000  TR
  31.000000  1  1.000000  TR
  30.000000  1  1.000000  TR
  31.000000  1  1.000000  TR
  31.000000  1  1.000000  TR
  30.000000  1  1.000000  TR
  31.000000  1  1.000000  TR
  30.000000  1  1.000000  TR
  31.000000  1  1.000000  TR
  31.000000  1  1.000000  TR
  28.000000  1  1.000000  TR
  31.000000  1  1.000000  TR
  30.000000  1  1.000000  TR
  31.000000  1  1.000000  TR
  30.000000  1  1.000000  TR
  31.000000  1  1.000000  TR
  31.000000  1  1.000000  TR
  30.000000  1  1.000000  TR
  31.000000  1  1.000000  TR
  30.000000  1  1.000000  TR
  31.000000  1  1.000000  TR
  31.000000  1  1.000000  TR
  29.000000  1  1.000000  TR
  31.000000  1  1.000000  TR
  30.000000  1  1.000000  TR
  31.000000  1  1.000000  TR
  30.000000  1  1.000000  TR
  31.000000  1  1.000000  TR
  31.000000  1  1.000000  TR
  30.000000  1  1.000000  TR
  31.000000  1  1.000000  TR
  30.000000  1  1.000000  TR
  31.000000  1  1.000000  TR
  31.000000  1  1.000000  TR
  28.000000  1  1.000000  TR
  31.000000  1  1.000000  TR
  30.000000  1  1.000000  TR
  31.000000  1  1.000000  TR
  30.000000  1  1.000000  TR
  31.000000  1  1.000000  TR
  31.000000  1  1.000000  TR
  30.000000  1  1.000000  TR
  31.000000  1  1.000000  TR
  30.000000  1  1.000000  TR
  31.000000  1  1.000000  TR
  31.000000  1  1.000000  TR
  28.000000  1  1.000000  TR
  31.000000  1  1.000000  TR
  30.000000  1  1.000000  TR
  31.000000  1  1.000000  TR
  30.000000  1  1.000000  TR
  31.000000  1  1.000000  TR
  31.000000  1  1.000000  TR
  30.000000  1  1.000000  TR
  31.000000  1  1.000000  TR
  30.000000  1  1.000000  TR
  31.000000  1  1.000000  TR
  31.000000  1  1.000000  TR
  28.000000  1  1.000000  TR
  31.000000  1  1.000000  TR
  30.000000  1  1.000000  TR
  31.000000  1  1.000000  TR
  30.000000  1  1.000000  TR
  31.000000  1  1.000000  TR
  31.000000  1  1.000000  TR
  30.000000  1  1.000000  TR
  31.000000  1  1.000000  TR
  30.000000  1  1.000000  TR
  31.000000  1  1.000000  TR
  31.000000  1  1.000000  TR
  29.000000  1  1.000000  TR
  31.000000  1  1.000000  TR
  30.000000  1  1.000000  TR
  31.000000  1  1.000000  TR
  30.000000  1  1.000000  TR
  31.000000  1  1.000000  TR
  31.000000  1  1.000000  TR
  30.000000  1  1.000000  TR
  31.000000  1  1.000000  TR
  30.000000  1  1.000000  TR
  31.000000  1  1.000000  TR
  31.000000  1  1.000000  TR
  28.000000  1  1.000000  TR
  31.000000  1  1.000000  TR
  30.000000  1  1.000000  TR
  31.000000  1  1.000000  TR
  30.000000  1  1.000000  TR
  31.000000  1  1.000000  TR
  31.000000  1  1.000000  TR
  30.000000  1  1.000000  TR
  31.000000  1  1.000000  TR
  30.000000  1  1.000000  TR
  31.000000  1  1.000000  TR
  31.000000  1  1.000000  TR
  28.000000  1  1.000000  TR
  31.000000  1  1.000000  TR
  30.000000  1  1.000000  TR
  31.000000  1  1.000000  TR
  30.000000  1  1.000000  TR
  31.000000  1  1.000000  TR
  31.000000  1  1.000000  TR
  30.000000  1  1.000000  TR
  31.000000  1  1.000000  TR
  30.000000  1  1.000000  TR
  31.000000  1  1.000000  TR
  31.000000  1  1.000000  TR
  28.000000  1  1.000000  TR
  31.000000  1  1.000000  TR
  30.000000  1  1.000000  TR
  31.000000  1  1.000000  TR
  30.000000  1  1.000000  TR
  31.000000  1  1.000000  TR
  31.000000  1  1.000000  TR
  30.000000  1  1.000000  TR
  31.000000  1  1.000000  TR
  30.000000  1  1.000000  TR
  31.000000  1  1.000000  TR
  31.000000  1  1.000000  TR
  29.000000  1  1.000000  TR
  31.000000  1  1.000000  TR
  30.000000  1  1.000000  TR
  31.000000  1  1.000000  TR
  30.000000  1  1.000000  TR
  31.000000  1  1.000000  TR
  31.000000  1  1.000000  TR
  30.000000  1  1.000000  TR
  31.000000  1  1.000000  TR
  30.000000  1  1.000000  TR
  31.000000  1  1.000000  TR
  31.000000  1  1.000000  TR
  28.000000  1  1.000000  TR
  31.000000  1  1.000000  TR
  30.000000  1  1.000000  TR
  31.000000  1  1.000000  TR
  30.000000  1  1.000000  TR
  31.000000  1  1.000000  TR
  31.000000  1  1.000000  TR
  30.000000  1  1.000000  TR
  31.000000  1  1.000000  TR
  30.000000  1  1.000000  TR
  31.000000  1  1.000000  TR
  31.000000  1  1.000000  TR
  28.000000  1  1.000000  TR
  31.000000  1  1.000000  TR
  30.000000  1  1.000000  TR
  31.000000  1  1.000000  TR
  30.000000  1  1.000000  TR
  31.000000  1  1.000000  TR
  31.000000  1  1.000000  TR
  30.000000  1  1.000000  TR
  31.000000  1  1.000000  TR
  30.000000  1  1.000000  TR
  31.000000  1  1.000000  TR
  31.000000  1  1.000000  TR
  28.000000  1  1.000000  TR
  31.000000  1  1.000000  TR
  30.000000  1  1.000000  TR
  31.000000  1  1.000000  TR
  30.000000  1  1.000000  TR
  31.000000  1  1.000000  TR
  31.000000  1  1.000000  TR
  30.000000  1  1.000000  TR
  31.000000  1  1.000000  TR
  30.000000  1  1.000000  TR
  31.000000  1  1.000000  TR
  31.000000  1  1.000000  TR
  29.000000  1  1.000000  TR
  31.000000  1  1.000000  TR
  30.000000  1  1.000000  TR
  31.000000  1  1.000000  TR
  30.000000  1  1.000000  TR
  31.000000  1  1.000000  TR
  31.000000  1  1.000000  TR
  30.000000  1  1.000000  TR
  31.000000  1  1.000000  TR
  30.000000  1  1.000000  TR
  31.000000  1  1.000000  TR
  31.000000  1  1.000000  TR
  28.000000  1  1.000000  TR
  31.000000  1  1.000000  TR
  30.000000  1  1.000000  TR
  31.000000  1  1.000000  TR
  30.000000  1  1.000000  TR
  31.000000  1  1.000000  TR
  31.000000  1  1.000000  TR
  30.000000  1  1.000000  TR
  31.000000  1  1.000000  TR
  30.000000  1  1.000000  TR
  31.000000  1  1.000000  TR
  31.000000  1  1.000000  TR
  28.000000  1  1.000000  TR
  31.000000  1  1.000000  TR
  30.000000  1  1.000000  TR
  31.000000  1  1.000000  TR
  30.000000  1  1.000000  TR
  31.000000  1  1.000000  TR
  31.000000  1  1.000000  TR
  30.000000  1  1.000000  TR
  31.000000  1  1.000000  TR
  30.000000  1  1.000000  TR
  31.000000  1  1.000000  TR
  31.000000  1  1.000000  TR
  28.000000  1  1.000000  TR
  31.000000  1  1.000000  TR
  30.000000  1  1.000000  TR
  31.000000  1  1.000000  TR
  30.000000  1  1.000000  TR
  31.000000  1  1.000000  TR
  31.000000  1  1.000000  TR
  30.000000  1  1.000000  TR
  31.000000  1  1.000000  TR
  30.000000  1  1.000000  TR
  31.000000  1  1.000000  TR
  31.000000  1  1.000000  TR
  29.000000  1  1.000000  TR
  31.000000  1  1.000000  TR
  30.000000  1  1.000000  TR
  31.000000  1  1.000000  TR
  30.000000  1  1.000000  TR
  31.000000  1  1.000000  TR
  31.000000  1  1.000000  TR
  30.000000  1  1.000000  TR
  31.000000  1  1.000000  TR
  30.000000  1  1.000000  TR
  31.000000  1  1.000000  TR
  31.000000  1  1.000000  TR
  28.000000  1  1.000000  TR
  31.000000  1  1.000000  TR
  30.000000  1  1.000000  TR
  31.000000  1  1.000000  TR
  30.000000  1  1.000000  TR
  31.000000  1  1.000000  TR
  31.000000  1  1.000000  TR
  30.000000  1  1.000000  TR
  31.000000  1  1.000000  TR
  30.000000  1  1.000000  TR
  31.000000  1  1.000000  TR
  31.000000  1  1.000000  TR
  28.000000  1  1.000000  TR
  31.000000  1  1.000000  TR
  30.000000  1  1.000000  TR
  31.000000  1  1.000000  TR
  30.000000  1  1.000000  TR
  31.000000  1  1.000000  TR
  31.000000  1  1.000000  TR
  30.000000  1  1.000000  TR
  31.000000  1  1.000000  TR
  30.000000  1  1.000000  TR
  31.000000  1  1.000000  TR
  31.000000  1  1.000000  TR
  28.000000  1  1.000000  TR
  31.000000  1  1.000000  TR
  30.000000  1  1.000000  TR
  31.000000  1  1.000000  TR
  30.000000  1  1.000000  TR
  31.000000  1  1.000000  TR
  31.000000  1  1.000000  TR
  30.000000  1  1.000000  TR
  31.000000  1  1.000000  TR
  30.000000  1  1.000000  TR
  31.000000  1  1.000000  TR
  31.000000  1  1.000000  TR
  29.000000  1  1.000000  TR
  31.000000  1  1.000000  TR
  30.000000  1  1.000000  TR
  31.000000  1  1.000000  TR
  30.000000  1  1.000000  TR
  31.000000  1  1.000000  TR
  31.000000  1  1.000000  TR
  30.000000  1  1.000000  TR
  31.000000  1  1.000000  TR
  30.000000  1  1.000000  TR
  31.000000  1  1.000000  TR
  31.000000  1  1.000000  TR
  28.000000  1  1.000000  TR
  31.000000  1  1.000000  TR
  30.000000  1  1.000000  TR
  31.000000  1  1.000000  TR
  30.000000  1  1.000000  TR
  31.000000  1  1.000000  TR
  31.000000  1  1.000000  TR
  30.000000  1  1.000000  TR
  31.000000  1  1.000000  TR
  30.000000  1  1.000000  TR
  31.000000  1  1.000000  TR
  31.000000  1  1.000000  TR
  28.000000  1  1.000000  TR
  31.000000  1  1.000000  TR
  30.000000  1  1.000000  TR
  31.000000  1  1.000000  TR
  30.000000  1  1.000000  TR
  31.000000  1  1.000000  TR
  31.000000  1  1.000000  TR
  30.000000  1  1.000000  TR
  31.000000  1  1.000000  TR
  30.000000  1  1.000000  TR
  31.000000  1  1.000000  TR
  31.000000  1  1.000000  TR
  28.000000  1  1.000000  TR
  31.000000  1  1.000000  TR
  30.000000  1  1.000000  TR
  31.000000  1  1.000000  TR
  30.000000  1  1.000000  TR
  31.000000  1  1.000000  TR
  31.000000  1  1.000000  TR
  30.000000  1  1.000000  TR
  31.000000  1  1.000000  TR
  30.000000  1  1.000000  TR
  31.000000  1  1.000000  TR
  31.000000  1  1.000000  TR
  29.000000  1  1.000000  TR
  31.000000  1  1.000000  TR
  30.000000  1  1.000000  TR
  31.000000  1  1.000000  TR
  30.000000  1  1.000000  TR
  31.000000  1  1.000000  TR
  31.000000  1  1.000000  TR
  30.000000  1  1.000000  TR
  31.000000  1  1.000000  TR
  30.000000  1  1.000000  TR
  31.000000  1  1.000000  TR
  31.000000  1  1.000000  TR
  28.000000  1  1.000000  TR
  31.000000  1  1.000000  TR
  30.000000  1  1.000000  TR
  31.000000  1  1.000000  TR
  30.000000  1  1.000000  TR
  31.000000  1  1.000000  TR
  31.000000  1  1.000000  TR
  30.000000  1  1.000000  TR
  31.000000  1  1.000000  TR
  30.000000  1  1.000000  TR
  31.000000  1  1.000000  TR
  31.000000  1  1.000000  TR
  28.000000  1  1.000000  TR
  31.000000  1  1.000000  TR
  30.000000  1  1.000000  TR
  31.000000  1  1.000000  TR
  30.000000  1  1.000000  TR
  31.000000  1  1.000000  TR
  31.000000  1  1.000000  TR
  30.000000  1  1.000000  TR
  31.000000  1  1.000000  TR
  30.000000  1  1.000000  TR
  31.000000  1  1.000000  TR
  31.000000  1  1.000000  TR
  28.000000  1  1.000000  TR
  31.000000  1  1.000000  TR
  30.000000  1  1.000000  TR
  31.000000  1  1.000000  TR
  30.000000  1  1.000000  TR
  31.000000  1  1.000000  TR
  31.000000  1  1.000000  TR
  30.000000  1  1.000000  TR
  31.000000  1  1.000000  TR
  30.000000  1  1.000000  TR
  31.000000  1  1.000000  TR
  31.000000  1  1.000000  TR
  29.000000  1  1.000000  TR
  31.000000  1  1.000000  TR
  30.000000  1  1.000000  TR
  31.000000  1  1.000000  TR
  30.000000  1  1.000000  TR
  31.000000  1  1.000000  TR
  31.000000  1  1.000000  TR
  30.000000  1  1.000000  TR
  31.000000  1  1.000000  TR
  30.000000  1  1.000000  TR
  31.000000  1  1.000000  TR
  31.000000  1  1.000000  TR
  28.000000  1  1.000000  TR
  31.000000  1  1.000000  TR
  30.000000  1  1.000000  TR
  31.000000  1  1.000000  TR
  30.000000  1  1.000000  TR
  31.000000  1  1.000000  TR
  31.000000  1  1.000000  TR
  30.000000  1  1.000000  TR
  31.000000  1  1.000000  TR
  30.000000  1  1.000000  TR
  31.000000  1  1.000000  TR
  31.000000  1  1.000000  TR
  28.000000  1  1.000000  TR
  31.000000  1  1.000000  TR
  30.000000  1  1.000000  TR
  31.000000  1  1.000000  TR
  30.000000  1  1.000000  TR
  31.000000  1  1.000000  TR
  31.000000  1  1.000000  TR
  30.000000  1  1.000000  TR
  31.000000  1  1.000000  TR
  30.000000  1  1.000000  TR
  31.000000  1  1.000000  TR
  31.000000  1  1.000000  TR
  28.000000  1  1.000000  TR
  31.000000  1  1.000000  TR
  30.000000  1  1.000000  TR
  31.000000  1  1.000000  TR
  30.000000  1  1.000000  TR
  31.000000  1  1.000000  TR
  31.000000  1  1.000000  TR
  30.000000  1  1.000000  TR
  31.000000  1  1.000000  TR
  30.000000  1  1.000000  TR
  31.000000  1  1.000000  TR
  31.000000  1  1.000000  TR
  29.000000  1  1.000000  TR
  31.000000  1  1.000000  TR
  30.000000  1  1.000000  TR
  31.000000  1  1.000000  TR
  30.000000  1  1.000000  TR
  31.000000  1  1.000000  TR
  31.000000  1  1.000000  TR
  30.000000  1  1.000000  TR
  31.000000  1  1.000000  TR
  30.000000  1  1.000000  TR
  31.000000  1  1.000000  TR
  31.000000  1  1.000000  TR
  28.000000  1  1.000000  TR
  31.000000  1  1.000000  TR
  30.000000  1  1.000000  TR
  31.000000  1  1.000000  TR
  30.000000  1  1.000000  TR
  31.000000  1  1.000000  TR
  31.000000  1  1.000000  TR
  30.000000  1  1.000000  TR
  31.000000  1  1.000000  TR
  30.000000  1  1.000000  TR
  31.000000  1  1.000000  TR
  31.000000  1  1.000000  TR
  28.000000  1  1.000000  TR
  31.000000  1  1.000000  TR
  30.000000  1  1.000000  TR
  31.000000  1  1.000000  TR
  30.000000  1  1.000000  TR
  31.000000  1  1.000000  TR
  31.000000  1  1.000000  TR
  30.000000  1  1.000000  TR
  31.000000  1  1.000000  TR
  30.000000  1  1.000000  TR
  31.000000  1  1.000000  TR
  31.000000  1  1.000000  TR
  28.000000  1  1.000000  TR
  31.000000  1  1.000000  TR
  30.000000  1  1.000000  TR
  31.000000  1  1.000000  TR
  30.000000  1  1.000000  TR
  31.000000  1  1.000000  TR
  31.000000  1  1.000000  TR
  30.000000  1  1.000000  TR
  31.000000  1  1.000000  TR
  30.000000  1  1.000000  TR
  31.000000  1  1.000000  TR
  31.000000  1  1.000000  TR
  29.000000  1  1.000000  TR
  31.000000  1  1.000000  TR
  30.000000  1  1.000000  TR
  31.000000  1  1.000000  TR
  30.000000  1  1.000000  TR
  31.000000  1  1.000000  TR
  31.000000  1  1.000000  TR
  30.000000  1  1.000000  TR
  31.000000  1  1.000000  TR
  30.000000  1  1.000000  TR
  31.000000  1  1.000000  TR
  31.000000  1  1.000000  TR
  28.000000  1  1.000000  TR
  31.000000  1  1.000000  TR
  30.000000  1  1.000000  TR
  31.000000  1  1.000000  TR
  30.000000  1  1.000000  TR
  31.000000  1  1.000000  TR
  31.000000  1  1.000000  TR
  30.000000  1  1.000000  TR
  31.000000  1  1.000000  TR
  30.000000  1  1.000000  TR
  31.000000  1  1.000000  TR
  31.000000  1  1.000000  TR
  28.000000  1  1.000000  TR
  31.000000  1  1.000000  TR
  30.000000  1  1.000000  TR
  31.000000  1  1.000000  TR
  30.000000  1  1.000000  TR
  31.000000  1  1.000000  TR
  31.000000  1  1.000000  TR
  30.000000  1  1.000000  TR
  31.000000  1  1.000000  TR
