# MODFLOW2000 General Head Boundary Package  [head is MEAN TIDE in freshwater equiv.]
PARAMETER  1  3180         [ PARAMETER NPGHB MXL]
 3180 50 
 ghbk GHB 1 3180       
 1 205 80 3.373   1 
 1 206 79 3.373   1 
 1 206 80 3.373   1 
 1 206 81 3.373   1 
 1 207 79 3.373   1 
 1 207 80 3.373   1 
 1 207 81 3.373   1 
 1 207 82 3.373   1 
 1 207 83 3.373   1 
 1 208 79 3.373   1 
 1 208 80 3.373   1 
 1 208 81 3.373   1 
 1 208 82 3.373   1 
 1 208 83 3.373   1 
 1 208 84 3.373   1 
 1 209 79 3.373   1 
 1 209 80 3.373   1 
 1 209 81 3.373   1 
 1 209 82 3.373   1 
 1 209 83 3.373   1 
 1 209 84 3.373   1 
 1 209 85 3.373   1 
 1 210 79 3.373   1 
 1 210 80 3.373   1 
 1 210 81 3.373   1 
 1 210 82 3.373   1 
 1 210 83 3.373   1 
 1 210 84 3.373   1 
 1 210 85 3.373   1 
 1 211 79 3.373   1 
 1 211 80 3.373   1 
 1 211 81 3.373   1 
 1 211 82 3.373   1 
 1 211 83 3.373   1 
 1 211 84 3.373   1 
 1 211 85 3.373   1 
 1 212 79 3.373   1 
 1 212 80 3.373   1 
 1 212 81 3.373   1 
 1 212 82 3.373   1 
 1 212 83 3.373   1 
 1 212 84 3.373   1 
 1 212 85 3.373   1 
 1 213 79 3.373   1 
 1 213 80 3.373   1 
 1 213 81 3.373   1 
 1 213 82 3.373   1 
 1 213 83 3.373   1 
 1 213 84 3.373   1 
 1 213 85 3.373   1 
 1 214 79 3.373   1 
 1 214 80 3.373   1 
 1 214 81 3.373   1 
 1 214 82 3.373   1 
 1 214 83 3.373   1 
 1 214 84 3.373   1 
 1 214 85 3.373   1 
 1 215 79 3.373   1 
 1 215 80 3.373   1 
 1 215 81 3.373   1 
 1 215 82 3.373   1 
 1 215 83 3.373   1 
 1 215 84 3.373   1 
 1 215 85 3.373   1 
 1 216 73 3.373   1 
 1 216 74 3.373   1 
 1 216 79 3.373   1 
 1 216 80 3.373   1 
 1 216 81 3.373   1 
 1 216 82 3.373   1 
 1 216 83 3.373   1 
 1 216 84 3.373   1 
 1 216 85 3.373   1 
 1 217 74 3.373   1 
 1 217 75 3.373   1 
 1 217 78 3.373   1 
 1 217 79 3.373   1 
 1 217 80 3.373   1 
 1 217 81 3.373   1 
 1 217 82 3.373   1 
 1 217 83 3.373   1 
 1 217 84 3.373   1 
 1 217 85 3.373   1 
 1 218 74 3.373   1 
 1 218 75 3.373   1 
 1 218 76 3.373   1 
 1 218 77 3.373   1 
 1 218 78 3.373   1 
 1 218 79 3.373   1 
 1 218 80 3.373   1 
 1 218 81 3.373   1 
 1 218 82 3.373   1 
 1 218 83 3.373   1 
 1 218 84 3.373   1 
 1 218 85 3.373   1 
 1 219 74 3.373   1 
 1 219 75 3.373   1 
 1 219 76 3.373   1 
 1 219 77 3.373   1 
 1 219 78 3.373   1 
 1 219 79 3.373   1 
 1 219 80 3.373   1 
 1 219 81 3.373   1 
 1 219 82 3.373   1 
 1 219 83 3.373   1 
 1 219 84 3.373   1 
 1 219 85 3.373   1 
 1 220 73 3.373   1 
 1 220 74 3.373   1 
 1 220 75 3.373   1 
 1 220 76 3.373   1 
 1 220 77 3.373   1 
 1 220 78 3.373   1 
 1 220 79 3.373   1 
 1 220 80 3.373   1 
 1 220 81 3.373   1 
 1 220 82 3.373   1 
 1 220 83 3.373   1 
 1 220 84 3.373   1 
 1 220 85 3.373   1 
 1 221 73 3.373   1 
 1 221 74 3.373   1 
 1 221 75 3.373   1 
 1 221 76 3.373   1 
 1 221 77 3.373   1 
 1 221 78 3.373   1 
 1 221 79 3.373   1 
 1 221 80 3.373   1 
 1 221 81 3.373   1 
 1 221 82 3.373   1 
 1 221 83 3.373   1 
 1 221 84 3.373   1 
 1 221 85 3.373   1 
 1 222 73 3.373   1 
 1 222 74 3.373   1 
 1 222 75 3.373   1 
 1 222 76 3.373   1 
 1 222 77 3.373   1 
 1 222 78 3.373   1 
 1 222 79 3.373   1 
 1 222 80 3.373   1 
 1 222 81 3.373   1 
 1 222 82 3.373   1 
 1 222 83 3.373   1 
 1 222 84 3.373   1 
 1 222 85 3.373   1 
 1 223 65 3.373   1 
 1 223 66 3.373   1 
 1 223 72 3.373   1 
 1 223 73 3.373   1 
 1 223 74 3.373   1 
 1 223 75 3.373   1 
 1 223 76 3.373   1 
 1 223 77 3.373   1 
 1 223 78 3.373   1 
 1 223 79 3.373   1 
 1 223 80 3.373   1 
 1 223 81 3.373   1 
 1 223 82 3.373   1 
 1 223 83 3.373   1 
 1 223 84 3.373   1 
 1 223 85 3.373   1 
 1 224 64 3.373   1 
 1 224 65 3.373   1 
 1 224 66 3.373   1 
 1 224 67 3.373   1 
 1 224 68 3.373   1 
 1 224 69 3.373   1 
 1 224 70 3.373   1 
 1 224 71 3.373   1 
 1 224 72 3.373   1 
 1 224 73 3.373   1 
 1 224 74 3.373   1 
 1 224 75 3.373   1 
 1 224 76 3.373   1 
 1 224 77 3.373   1 
 1 224 78 3.373   1 
 1 224 79 3.373   1 
 1 224 80 3.373   1 
 1 224 81 3.373   1 
 1 224 82 3.373   1 
 1 224 83 3.373   1 
 1 224 84 3.373   1 
 1 224 85 3.373   1 
 1 225 64 3.373   1 
 1 225 65 3.373   1 
 1 225 66 3.373   1 
 1 225 67 3.373   1 
 1 225 68 3.373   1 
 1 225 69 3.373   1 
 1 225 70 3.373   1 
 1 225 71 3.373   1 
 1 225 72 3.373   1 
 1 225 73 3.373   1 
 1 225 74 3.373   1 
 1 225 75 3.373   1 
 1 225 76 3.373   1 
 1 225 77 3.373   1 
 1 225 78 3.373   1 
 1 225 79 3.373   1 
 1 225 80 3.373   1 
 1 225 81 3.373   1 
 1 225 82 3.373   1 
 1 225 83 3.373   1 
 1 225 84 3.373   1 
 1 225 85 3.373   1 
 1 226 63 3.373   1 
 1 226 64 3.373   1 
 1 226 65 3.373   1 
 1 226 66 3.373   1 
 1 226 67 3.373   1 
 1 226 68 3.373   1 
 1 226 69 3.373   1 
 1 226 70 3.373   1 
 1 226 71 3.373   1 
 1 226 72 3.373   1 
 1 226 73 3.373   1 
 1 226 74 3.373   1 
 1 226 75 3.373   1 
 1 226 76 3.373   1 
 1 226 77 3.373   1 
 1 226 78 3.373   1 
 1 226 79 3.373   1 
 1 226 80 3.373   1 
 1 226 81 3.373   1 
 1 226 82 3.373   1 
 1 226 83 3.373   1 
 1 226 84 3.373   1 
 1 226 85 3.373   1 
 1 227 63 3.373   1 
 1 227 64 3.373   1 
 1 227 65 3.373   1 
 1 227 66 3.373   1 
 1 227 67 3.373   1 
 1 227 68 3.373   1 
 1 227 69 3.373   1 
 1 227 70 3.373   1 
 1 227 71 3.373   1 
 1 227 72 3.373   1 
 1 227 73 3.373   1 
 1 227 74 3.373   1 
 1 227 75 3.373   1 
 1 227 76 3.373   1 
 1 227 77 3.373   1 
 1 227 78 3.373   1 
 1 227 79 3.373   1 
 1 227 80 3.373   1 
 1 227 81 3.373   1 
 1 227 82 3.373   1 
 1 227 83 3.373   1 
 1 227 84 3.373   1 
 1 227 85 3.373   1 
 1 228 63 3.373   1 
 1 228 64 3.373   1 
 1 228 65 3.373   1 
 1 228 66 3.373   1 
 1 228 67 3.373   1 
 1 228 68 3.373   1 
 1 228 69 3.373   1 
 1 228 70 3.373   1 
 1 228 71 3.373   1 
 1 228 72 3.373   1 
 1 228 73 3.373   1 
 1 228 74 3.373   1 
 1 228 75 3.373   1 
 1 228 76 3.373   1 
 1 228 77 3.373   1 
 1 228 78 3.373   1 
 1 228 79 3.373   1 
 1 228 80 3.373   1 
 1 228 81 3.373   1 
 1 228 82 3.373   1 
 1 228 83 3.373   1 
 1 228 84 3.373   1 
 1 228 85 3.373   1 
 1 229 63 3.373   1 
 1 229 64 3.373   1 
 1 229 65 3.373   1 
 1 229 66 3.373   1 
 1 229 67 3.373   1 
 1 229 68 3.373   1 
 1 229 69 3.373   1 
 1 229 70 3.373   1 
 1 229 71 3.373   1 
 1 229 72 3.373   1 
 1 229 73 3.373   1 
 1 229 74 3.373   1 
 1 229 75 3.373   1 
 1 229 76 3.373   1 
 1 229 77 3.373   1 
 1 229 78 3.373   1 
 1 229 79 3.373   1 
 1 229 80 3.373   1 
 1 229 81 3.373   1 
 1 229 82 3.373   1 
 1 229 83 3.373   1 
 1 229 84 3.373   1 
 1 229 85 3.373   1 
 1 230 38 3.373   1 
 1 230 39 3.373   1 
 1 230 40 3.373   1 
 1 230 41 3.373   1 
 1 230 63 3.373   1 
 1 230 64 3.373   1 
 1 230 65 3.373   1 
 1 230 66 3.373   1 
 1 230 67 3.373   1 
 1 230 68 3.373   1 
 1 230 69 3.373   1 
 1 230 70 3.373   1 
 1 230 71 3.373   1 
 1 230 72 3.373   1 
 1 230 73 3.373   1 
 1 230 74 3.373   1 
 1 230 75 3.373   1 
 1 230 76 3.373   1 
 1 230 77 3.373   1 
 1 230 78 3.373   1 
 1 230 79 3.373   1 
 1 230 80 3.373   1 
 1 230 81 3.373   1 
 1 230 82 3.373   1 
 1 230 83 3.373   1 
 1 230 84 3.373   1 
 1 230 85 3.373   1 
 1 231 37 3.373   1 
 1 231 38 3.373   1 
 1 231 39 3.373   1 
 1 231 40 3.373   1 
 1 231 41 3.373   1 
 1 231 42 3.373   1 
 1 231 43 3.373   1 
 1 231 44 3.373   1 
 1 231 63 3.373   1 
 1 231 64 3.373   1 
 1 231 65 3.373   1 
 1 231 66 3.373   1 
 1 231 67 3.373   1 
 1 231 68 3.373   1 
 1 231 69 3.373   1 
 1 231 70 3.373   1 
 1 231 71 3.373   1 
 1 231 72 3.373   1 
 1 231 73 3.373   1 
 1 231 74 3.373   1 
 1 231 75 3.373   1 
 1 231 76 3.373   1 
 1 231 77 3.373   1 
 1 231 78 3.373   1 
 1 231 79 3.373   1 
 1 231 80 3.373   1 
 1 231 81 3.373   1 
 1 231 82 3.373   1 
 1 231 83 3.373   1 
 1 231 84 3.373   1 
 1 231 85 3.373   1 
 1 232 37 3.373   1 
 1 232 38 3.373   1 
 1 232 39 3.373   1 
 1 232 40 3.373   1 
 1 232 41 3.373   1 
 1 232 42 3.373   1 
 1 232 43 3.373   1 
 1 232 44 3.373   1 
 1 232 45 3.373   1 
 1 232 46 3.373   1 
 1 232 62 3.373   1 
 1 232 63 3.373   1 
 1 232 64 3.373   1 
 1 232 65 3.373   1 
 1 232 66 3.373   1 
 1 232 67 3.373   1 
 1 232 68 3.373   1 
 1 232 69 3.373   1 
 1 232 70 3.373   1 
 1 232 71 3.373   1 
 1 232 72 3.373   1 
 1 232 73 3.373   1 
 1 232 74 3.373   1 
 1 232 75 3.373   1 
 1 232 76 3.373   1 
 1 232 77 3.373   1 
 1 232 78 3.373   1 
 1 232 79 3.373   1 
 1 232 80 3.373   1 
 1 232 81 3.373   1 
 1 232 82 3.373   1 
 1 232 83 3.373   1 
 1 232 84 3.373   1 
 1 232 85 3.373   1 
 1 233 37 3.373   1 
 1 233 38 3.373   1 
 1 233 39 3.373   1 
 1 233 40 3.373   1 
 1 233 41 3.373   1 
 1 233 42 3.373   1 
 1 233 43 3.373   1 
 1 233 44 3.373   1 
 1 233 45 3.373   1 
 1 233 46 3.373   1 
 1 233 47 3.373   1 
 1 233 48 3.373   1 
 1 233 62 3.373   1 
 1 233 63 3.373   1 
 1 233 64 3.373   1 
 1 233 65 3.373   1 
 1 233 66 3.373   1 
 1 233 67 3.373   1 
 1 233 68 3.373   1 
 1 233 69 3.373   1 
 1 233 70 3.373   1 
 1 233 71 3.373   1 
 1 233 72 3.373   1 
 1 233 73 3.373   1 
 1 233 74 3.373   1 
 1 233 75 3.373   1 
 1 233 76 3.373   1 
 1 233 77 3.373   1 
 1 233 78 3.373   1 
 1 233 79 3.373   1 
 1 233 80 3.373   1 
 1 233 81 3.373   1 
 1 233 82 3.373   1 
 1 233 83 3.373   1 
 1 233 84 3.373   1 
 1 233 85 3.373   1 
 1 234 37 3.373   1 
 1 234 38 3.373   1 
 1 234 39 3.373   1 
 1 234 40 3.373   1 
 1 234 41 3.373   1 
 1 234 42 3.373   1 
 1 234 43 3.373   1 
 1 234 44 3.373   1 
 1 234 45 3.373   1 
 1 234 46 3.373   1 
 1 234 47 3.373   1 
 1 234 48 3.373   1 
 1 234 49 3.373   1 
 1 234 62 3.373   1 
 1 234 63 3.373   1 
 1 234 64 3.373   1 
 1 234 65 3.373   1 
 1 234 66 3.373   1 
 1 234 67 3.373   1 
 1 234 68 3.373   1 
 1 234 69 3.373   1 
 1 234 70 3.373   1 
 1 234 71 3.373   1 
 1 234 72 3.373   1 
 1 234 73 3.373   1 
 1 234 74 3.373   1 
 1 234 75 3.373   1 
 1 234 76 3.373   1 
 1 234 77 3.373   1 
 1 234 78 3.373   1 
 1 234 79 3.373   1 
 1 234 80 3.373   1 
 1 234 81 3.373   1 
 1 234 82 3.373   1 
 1 234 83 3.373   1 
 1 234 84 3.373   1 
 1 234 85 3.373   1 
 1 235 37 3.373   1 
 1 235 38 3.373   1 
 1 235 39 3.373   1 
 1 235 40 3.373   1 
 1 235 41 3.373   1 
 1 235 42 3.373   1 
 1 235 43 3.373   1 
 1 235 44 3.373   1 
 1 235 45 3.373   1 
 1 235 46 3.373   1 
 1 235 47 3.373   1 
 1 235 48 3.373   1 
 1 235 49 3.373   1 
 1 235 50 3.373   1 
 1 235 51 3.373   1 
 1 235 62 3.373   1 
 1 235 63 3.373   1 
 1 235 64 3.373   1 
 1 235 65 3.373   1 
 1 235 66 3.373   1 
 1 235 67 3.373   1 
 1 235 68 3.373   1 
 1 235 69 3.373   1 
 1 235 70 3.373   1 
 1 235 71 3.373   1 
 1 235 72 3.373   1 
 1 235 73 3.373   1 
 1 235 74 3.373   1 
 1 235 75 3.373   1 
 1 235 76 3.373   1 
 1 235 77 3.373   1 
 1 235 78 3.373   1 
 1 235 79 3.373   1 
 1 235 80 3.373   1 
 1 235 81 3.373   1 
 1 235 82 3.373   1 
 1 235 83 3.373   1 
 1 235 84 3.373   1 
 1 235 85 3.373   1 
 1 236 36 3.373   1 
 1 236 37 3.373   1 
 1 236 38 3.373   1 
 1 236 39 3.373   1 
 1 236 40 3.373   1 
 1 236 41 3.373   1 
 1 236 42 3.373   1 
 1 236 43 3.373   1 
 1 236 44 3.373   1 
 1 236 45 3.373   1 
 1 236 46 3.373   1 
 1 236 47 3.373   1 
 1 236 48 3.373   1 
 1 236 49 3.373   1 
 1 236 50 3.373   1 
 1 236 51 3.373   1 
 1 236 52 3.373   1 
 1 236 61 3.373   1 
 1 236 62 3.373   1 
 1 236 63 3.373   1 
 1 236 64 3.373   1 
 1 236 65 3.373   1 
 1 236 66 3.373   1 
 1 236 67 3.373   1 
 1 236 68 3.373   1 
 1 236 69 3.373   1 
 1 236 70 3.373   1 
 1 236 71 3.373   1 
 1 236 72 3.373   1 
 1 236 73 3.373   1 
 1 236 74 3.373   1 
 1 236 75 3.373   1 
 1 236 76 3.373   1 
 1 236 77 3.373   1 
 1 236 78 3.373   1 
 1 236 79 3.373   1 
 1 236 80 3.373   1 
 1 236 81 3.373   1 
 1 236 82 3.373   1 
 1 236 83 3.373   1 
 1 236 84 3.373   1 
 1 236 85 3.373   1 
 1 237 36 3.373   1 
 1 237 37 3.373   1 
 1 237 38 3.373   1 
 1 237 39 3.373   1 
 1 237 40 3.373   1 
 1 237 41 3.373   1 
 1 237 42 3.373   1 
 1 237 43 3.373   1 
 1 237 44 3.373   1 
 1 237 45 3.373   1 
 1 237 46 3.373   1 
 1 237 47 3.373   1 
 1 237 48 3.373   1 
 1 237 49 3.373   1 
 1 237 50 3.373   1 
 1 237 51 3.373   1 
 1 237 52 3.373   1 
 1 237 53 3.373   1 
 1 237 61 3.373   1 
 1 237 62 3.373   1 
 1 237 63 3.373   1 
 1 237 64 3.373   1 
 1 237 65 3.373   1 
 1 237 66 3.373   1 
 1 237 67 3.373   1 
 1 237 68 3.373   1 
 1 237 69 3.373   1 
 1 237 70 3.373   1 
 1 237 71 3.373   1 
 1 237 72 3.373   1 
 1 237 73 3.373   1 
 1 237 74 3.373   1 
 1 237 75 3.373   1 
 1 237 76 3.373   1 
 1 237 77 3.373   1 
 1 237 78 3.373   1 
 1 237 79 3.373   1 
 1 237 80 3.373   1 
 1 237 81 3.373   1 
 1 237 82 3.373   1 
 1 237 83 3.373   1 
 1 237 84 3.373   1 
 1 237 85 3.373   1 
 1 238 36 3.373   1 
 1 238 37 3.373   1 
 1 238 38 3.373   1 
 1 238 39 3.373   1 
 1 238 40 3.373   1 
 1 238 41 3.373   1 
 1 238 42 3.373   1 
 1 238 43 3.373   1 
 1 238 44 3.373   1 
 1 238 45 3.373   1 
 1 238 46 3.373   1 
 1 238 47 3.373   1 
 1 238 48 3.373   1 
 1 238 49 3.373   1 
 1 238 50 3.373   1 
 1 238 51 3.373   1 
 1 238 52 3.373   1 
 1 238 53 3.373   1 
 1 238 54 3.373   1 
 1 238 59 3.373   1 
 1 238 60 3.373   1 
 1 238 61 3.373   1 
 1 238 62 3.373   1 
 1 238 63 3.373   1 
 1 238 64 3.373   1 
 1 238 65 3.373   1 
 1 238 66 3.373   1 
 1 238 67 3.373   1 
 1 238 68 3.373   1 
 1 238 69 3.373   1 
 1 238 70 3.373   1 
 1 238 71 3.373   1 
 1 238 72 3.373   1 
 1 238 73 3.373   1 
 1 238 74 3.373   1 
 1 238 75 3.373   1 
 1 238 76 3.373   1 
 1 238 77 3.373   1 
 1 238 78 3.373   1 
 1 238 79 3.373   1 
 1 238 80 3.373   1 
 1 238 81 3.373   1 
 1 238 82 3.373   1 
 1 238 83 3.373   1 
 1 238 84 3.373   1 
 1 238 85 3.373   1 
 1 239 35 3.373   1 
 1 239 36 3.373   1 
 1 239 37 3.373   1 
 1 239 38 3.373   1 
 1 239 39 3.373   1 
 1 239 40 3.373   1 
 1 239 41 3.373   1 
 1 239 42 3.373   1 
 1 239 43 3.373   1 
 1 239 44 3.373   1 
 1 239 45 3.373   1 
 1 239 46 3.373   1 
 1 239 47 3.373   1 
 1 239 48 3.373   1 
 1 239 49 3.373   1 
 1 239 50 3.373   1 
 1 239 51 3.373   1 
 1 239 52 3.373   1 
 1 239 53 3.373   1 
 1 239 54 3.373   1 
 1 239 55 3.373   1 
 1 239 56 3.373   1 
 1 239 57 3.373   1 
 1 239 58 3.373   1 
 1 239 59 3.373   1 
 1 239 60 3.373   1 
 1 239 61 3.373   1 
 1 239 62 3.373   1 
 1 239 63 3.373   1 
 1 239 64 3.373   1 
 1 239 65 3.373   1 
 1 239 66 3.373   1 
 1 239 67 3.373   1 
 1 239 68 3.373   1 
 1 239 69 3.373   1 
 1 239 70 3.373   1 
 1 239 71 3.373   1 
 1 239 72 3.373   1 
 1 239 73 3.373   1 
 1 239 74 3.373   1 
 1 239 75 3.373   1 
 1 239 76 3.373   1 
 1 239 77 3.373   1 
 1 239 78 3.373   1 
 1 239 79 3.373   1 
 1 239 80 3.373   1 
 1 239 81 3.373   1 
 1 239 82 3.373   1 
 1 239 83 3.373   1 
 1 239 84 3.373   1 
 1 239 85 3.373   1 
 1 240 34 3.373   1 
 1 240 35 3.373   1 
 1 240 36 3.373   1 
 1 240 37 3.373   1 
 1 240 38 3.373   1 
 1 240 39 3.373   1 
 1 240 40 3.373   1 
 1 240 41 3.373   1 
 1 240 42 3.373   1 
 1 240 43 3.373   1 
 1 240 44 3.373   1 
 1 240 45 3.373   1 
 1 240 46 3.373   1 
 1 240 47 3.373   1 
 1 240 48 3.373   1 
 1 240 49 3.373   1 
 1 240 50 3.373   1 
 1 240 51 3.373   1 
 1 240 52 3.373   1 
 1 240 53 3.373   1 
 1 240 54 3.373   1 
 1 240 55 3.373   1 
 1 240 56 3.373   1 
 1 240 57 3.373   1 
 1 240 58 3.373   1 
 1 240 59 3.373   1 
 1 240 60 3.373   1 
 1 240 61 3.373   1 
 1 240 62 3.373   1 
 1 240 63 3.373   1 
 1 240 64 3.373   1 
 1 240 65 3.373   1 
 1 240 66 3.373   1 
 1 240 67 3.373   1 
 1 240 68 3.373   1 
 1 240 69 3.373   1 
 1 240 70 3.373   1 
 1 240 71 3.373   1 
 1 240 72 3.373   1 
 1 240 73 3.373   1 
 1 240 74 3.373   1 
 1 240 75 3.373   1 
 1 240 76 3.373   1 
 1 240 77 3.373   1 
 1 240 78 3.373   1 
 1 240 79 3.373   1 
 1 240 80 3.373   1 
 1 240 81 3.373   1 
 1 240 82 3.373   1 
 1 240 83 3.373   1 
 1 240 84 3.373   1 
 1 240 85 3.373   1 
 1 241 34 3.373   1 
 1 241 35 3.373   1 
 1 241 36 3.373   1 
 1 241 37 3.373   1 
 1 241 38 3.373   1 
 1 241 39 3.373   1 
 1 241 40 3.373   1 
 1 241 41 3.373   1 
 1 241 42 3.373   1 
 1 241 43 3.373   1 
 1 241 44 3.373   1 
 1 241 45 3.373   1 
 1 241 46 3.373   1 
 1 241 47 3.373   1 
 1 241 48 3.373   1 
 1 241 49 3.373   1 
 1 241 50 3.373   1 
 1 241 51 3.373   1 
 1 241 52 3.373   1 
 1 241 53 3.373   1 
 1 241 54 3.373   1 
 1 241 55 3.373   1 
 1 241 56 3.373   1 
 1 241 57 3.373   1 
 1 241 58 3.373   1 
 1 241 59 3.373   1 
 1 241 60 3.373   1 
 1 241 61 3.373   1 
 1 241 62 3.373   1 
 1 241 63 3.373   1 
 1 241 64 3.373   1 
 1 241 65 3.373   1 
 1 241 66 3.373   1 
 1 241 67 3.373   1 
 1 241 68 3.373   1 
 1 241 69 3.373   1 
 1 241 70 3.373   1 
 1 241 71 3.373   1 
 1 241 72 3.373   1 
 1 241 73 3.373   1 
 1 241 74 3.373   1 
 1 241 75 3.373   1 
 1 241 76 3.373   1 
 1 241 77 3.373   1 
 1 241 78 3.373   1 
 1 241 79 3.373   1 
 1 241 80 3.373   1 
 1 241 81 3.373   1 
 1 241 82 3.373   1 
 1 241 83 3.373   1 
 1 241 84 3.373   1 
 1 241 85 3.373   1 
 1 242 33 3.373   1 
 1 242 34 3.373   1 
 1 242 35 3.373   1 
 1 242 36 3.373   1 
 1 242 37 3.373   1 
 1 242 38 3.373   1 
 1 242 39 3.373   1 
 1 242 40 3.373   1 
 1 242 41 3.373   1 
 1 242 42 3.373   1 
 1 242 43 3.373   1 
 1 242 44 3.373   1 
 1 242 45 3.373   1 
 1 242 46 3.373   1 
 1 242 47 3.373   1 
 1 242 48 3.373   1 
 1 242 49 3.373   1 
 1 242 50 3.373   1 
 1 242 51 3.373   1 
 1 242 52 3.373   1 
 1 242 53 3.373   1 
 1 242 54 3.373   1 
 1 242 55 3.373   1 
 1 242 56 3.373   1 
 1 242 57 3.373   1 
 1 242 58 3.373   1 
 1 242 59 3.373   1 
 1 242 60 3.373   1 
 1 242 61 3.373   1 
 1 242 62 3.373   1 
 1 242 63 3.373   1 
 1 242 64 3.373   1 
 1 242 65 3.373   1 
 1 242 66 3.373   1 
 1 242 67 3.373   1 
 1 242 68 3.373   1 
 1 242 69 3.373   1 
 1 242 70 3.373   1 
 1 242 71 3.373   1 
 1 242 72 3.373   1 
 1 242 73 3.373   1 
 1 242 74 3.373   1 
 1 242 75 3.373   1 
 1 242 76 3.373   1 
 1 242 77 3.373   1 
 1 242 78 3.373   1 
 1 242 79 3.373   1 
 1 242 80 3.373   1 
 1 242 81 3.373   1 
 1 242 82 3.373   1 
 1 242 83 3.373   1 
 1 242 84 3.373   1 
 1 242 85 3.373   1 
 1 243 31 3.373   1 
 1 243 32 3.373   1 
 1 243 33 3.373   1 
 1 243 34 3.373   1 
 1 243 35 3.373   1 
 1 243 36 3.373   1 
 1 243 37 3.373   1 
 1 243 38 3.373   1 
 1 243 39 3.373   1 
 1 243 40 3.373   1 
 1 243 41 3.373   1 
 1 243 42 3.373   1 
 1 243 43 3.373   1 
 1 243 44 3.373   1 
 1 243 45 3.373   1 
 1 243 46 3.373   1 
 1 243 47 3.373   1 
 1 243 48 3.373   1 
 1 243 49 3.373   1 
 1 243 50 3.373   1 
 1 243 51 3.373   1 
 1 243 52 3.373   1 
 1 243 53 3.373   1 
 1 243 54 3.373   1 
 1 243 55 3.373   1 
 1 243 56 3.373   1 
 1 243 57 3.373   1 
 1 243 58 3.373   1 
 1 243 59 3.373   1 
 1 243 60 3.373   1 
 1 243 61 3.373   1 
 1 243 62 3.373   1 
 1 243 63 3.373   1 
 1 243 64 3.373   1 
 1 243 65 3.373   1 
 1 243 66 3.373   1 
 1 243 67 3.373   1 
 1 243 68 3.373   1 
 1 243 69 3.373   1 
 1 243 70 3.373   1 
 1 243 71 3.373   1 
 1 243 72 3.373   1 
 1 243 73 3.373   1 
 1 243 74 3.373   1 
 1 243 75 3.373   1 
 1 243 76 3.373   1 
 1 243 77 3.373   1 
 1 243 78 3.373   1 
 1 243 79 3.373   1 
 1 243 80 3.373   1 
 1 243 81 3.373   1 
 1 243 82 3.373   1 
 1 243 83 3.373   1 
 1 243 84 3.373   1 
 1 243 85 3.373   1 
 1 244 29 3.373   1 
 1 244 30 3.373   1 
 1 244 31 3.373   1 
 1 244 32 3.373   1 
 1 244 33 3.373   1 
 1 244 34 3.373   1 
 1 244 35 3.373   1 
 1 244 36 3.373   1 
 1 244 37 3.373   1 
 1 244 38 3.373   1 
 1 244 39 3.373   1 
 1 244 40 3.373   1 
 1 244 41 3.373   1 
 1 244 42 3.373   1 
 1 244 43 3.373   1 
 1 244 44 3.373   1 
 1 244 45 3.373   1 
 1 244 46 3.373   1 
 1 244 47 3.373   1 
 1 244 48 3.373   1 
 1 244 49 3.373   1 
 1 244 50 3.373   1 
 1 244 51 3.373   1 
 1 244 52 3.373   1 
 1 244 53 3.373   1 
 1 244 54 3.373   1 
 1 244 55 3.373   1 
 1 244 56 3.373   1 
 1 244 57 3.373   1 
 1 244 58 3.373   1 
 1 244 59 3.373   1 
 1 244 60 3.373   1 
 1 244 61 3.373   1 
 1 244 62 3.373   1 
 1 244 63 3.373   1 
 1 244 64 3.373   1 
 1 244 65 3.373   1 
 1 244 66 3.373   1 
 1 244 67 3.373   1 
 1 244 68 3.373   1 
 1 244 69 3.373   1 
 1 244 70 3.373   1 
 1 244 71 3.373   1 
 1 244 72 3.373   1 
 1 244 73 3.373   1 
 1 244 74 3.373   1 
 1 244 75 3.373   1 
 1 244 76 3.373   1 
 1 244 77 3.373   1 
 1 244 78 3.373   1 
 1 244 79 3.373   1 
 1 244 80 3.373   1 
 1 244 81 3.373   1 
 1 244 82 3.373   1 
 1 244 83 3.373   1 
 1 244 84 3.373   1 
 1 244 85 3.373   1 
 1 245 27 3.373   1 
 1 245 28 3.373   1 
 1 245 29 3.373   1 
 1 245 30 3.373   1 
 1 245 31 3.373   1 
 1 245 32 3.373   1 
 1 245 33 3.373   1 
 1 245 34 3.373   1 
 1 245 35 3.373   1 
 1 245 36 3.373   1 
 1 245 37 3.373   1 
 1 245 38 3.373   1 
 1 245 39 3.373   1 
 1 245 40 3.373   1 
 1 245 41 3.373   1 
 1 245 42 3.373   1 
 1 245 43 3.373   1 
 1 245 44 3.373   1 
 1 245 45 3.373   1 
 1 245 46 3.373   1 
 1 245 47 3.373   1 
 1 245 48 3.373   1 
 1 245 49 3.373   1 
 1 245 50 3.373   1 
 1 245 51 3.373   1 
 1 245 52 3.373   1 
 1 245 53 3.373   1 
 1 245 54 3.373   1 
 1 245 55 3.373   1 
 1 245 56 3.373   1 
 1 245 57 3.373   1 
 1 245 58 3.373   1 
 1 245 59 3.373   1 
 1 245 60 3.373   1 
 1 245 61 3.373   1 
 1 245 62 3.373   1 
 1 245 63 3.373   1 
 1 245 64 3.373   1 
 1 245 65 3.373   1 
 1 245 66 3.373   1 
 1 245 67 3.373   1 
 1 245 68 3.373   1 
 1 245 69 3.373   1 
 1 245 70 3.373   1 
 1 245 71 3.373   1 
 1 245 72 3.373   1 
 1 245 73 3.373   1 
 1 245 74 3.373   1 
 1 245 75 3.373   1 
 1 245 76 3.373   1 
 1 245 77 3.373   1 
 1 245 78 3.373   1 
 1 245 79 3.373   1 
 1 245 80 3.373   1 
 1 245 81 3.373   1 
 1 245 82 3.373   1 
 1 245 83 3.373   1 
 1 245 84 3.373   1 
 1 245 85 3.373   1 
 1 246 24 3.373   1 
 1 246 25 3.373   1 
 1 246 26 3.373   1 
 1 246 27 3.373   1 
 1 246 28 3.373   1 
 1 246 29 3.373   1 
 1 246 30 3.373   1 
 1 246 31 3.373   1 
 1 246 32 3.373   1 
 1 246 33 3.373   1 
 1 246 34 3.373   1 
 1 246 35 3.373   1 
 1 246 36 3.373   1 
 1 246 37 3.373   1 
 1 246 38 3.373   1 
 1 246 39 3.373   1 
 1 246 40 3.373   1 
 1 246 41 3.373   1 
 1 246 42 3.373   1 
 1 246 43 3.373   1 
 1 246 44 3.373   1 
 1 246 45 3.373   1 
 1 246 46 3.373   1 
 1 246 47 3.373   1 
 1 246 48 3.373   1 
 1 246 49 3.373   1 
 1 246 50 3.373   1 
 1 246 51 3.373   1 
 1 246 52 3.373   1 
 1 246 53 3.373   1 
 1 246 54 3.373   1 
 1 246 55 3.373   1 
 1 246 56 3.373   1 
 1 246 57 3.373   1 
 1 246 58 3.373   1 
 1 246 59 3.373   1 
 1 246 60 3.373   1 
 1 246 61 3.373   1 
 1 246 62 3.373   1 
 1 246 63 3.373   1 
 1 246 64 3.373   1 
 1 246 65 3.373   1 
 1 246 66 3.373   1 
 1 246 67 3.373   1 
 1 246 68 3.373   1 
 1 246 69 3.373   1 
 1 246 70 3.373   1 
 1 246 71 3.373   1 
 1 246 72 3.373   1 
 1 246 73 3.373   1 
 1 246 74 3.373   1 
 1 246 75 3.373   1 
 1 246 76 3.373   1 
 1 246 77 3.373   1 
 1 246 78 3.373   1 
 1 246 79 3.373   1 
 1 246 80 3.373   1 
 1 246 81 3.373   1 
 1 246 82 3.373   1 
 1 246 83 3.373   1 
 1 246 84 3.373   1 
 1 246 85 3.373   1 
 1 247 21 3.373   1 
 1 247 22 3.373   1 
 1 247 23 3.373   1 
 1 247 24 3.373   1 
 1 247 25 3.373   1 
 1 247 26 3.373   1 
 1 247 27 3.373   1 
 1 247 28 3.373   1 
 1 247 29 3.373   1 
 1 247 30 3.373   1 
 1 247 31 3.373   1 
 1 247 32 3.373   1 
 1 247 33 3.373   1 
 1 247 34 3.373   1 
 1 247 35 3.373   1 
 1 247 36 3.373   1 
 1 247 37 3.373   1 
 1 247 38 3.373   1 
 1 247 39 3.373   1 
 1 247 40 3.373   1 
 1 247 41 3.373   1 
 1 247 42 3.373   1 
 1 247 43 3.373   1 
 1 247 44 3.373   1 
 1 247 45 3.373   1 
 1 247 46 3.373   1 
 1 247 47 3.373   1 
 1 247 48 3.373   1 
 1 247 49 3.373   1 
 1 247 50 3.373   1 
 1 247 51 3.373   1 
 1 247 52 3.373   1 
 1 247 53 3.373   1 
 1 247 54 3.373   1 
 1 247 55 3.373   1 
 1 247 56 3.373   1 
 1 247 57 3.373   1 
 1 247 58 3.373   1 
 1 247 59 3.373   1 
 1 247 60 3.373   1 
 1 247 61 3.373   1 
 1 247 62 3.373   1 
 1 247 63 3.373   1 
 1 247 64 3.373   1 
 1 247 65 3.373   1 
 1 247 66 3.373   1 
 1 247 67 3.373   1 
 1 247 68 3.373   1 
 1 247 69 3.373   1 
 1 247 70 3.373   1 
 1 247 71 3.373   1 
 1 247 72 3.373   1 
 1 247 73 3.373   1 
 1 247 74 3.373   1 
 1 247 75 3.373   1 
 1 247 76 3.373   1 
 1 247 77 3.373   1 
 1 247 78 3.373   1 
 1 247 79 3.373   1 
 1 247 80 3.373   1 
 1 247 81 3.373   1 
 1 247 82 3.373   1 
 1 247 83 3.373   1 
 1 247 84 3.373   1 
 1 247 85 3.373   1 
 1 248 16 3.373   1 
 1 248 17 3.373   1 
 1 248 18 3.373   1 
 1 248 19 3.373   1 
 1 248 20 3.373   1 
 1 248 21 3.373   1 
 1 248 22 3.373   1 
 1 248 23 3.373   1 
 1 248 24 3.373   1 
 1 248 25 3.373   1 
 1 248 26 3.373   1 
 1 248 27 3.373   1 
 1 248 28 3.373   1 
 1 248 29 3.373   1 
 1 248 30 3.373   1 
 1 248 31 3.373   1 
 1 248 32 3.373   1 
 1 248 33 3.373   1 
 1 248 34 3.373   1 
 1 248 35 3.373   1 
 1 248 36 3.373   1 
 1 248 37 3.373   1 
 1 248 38 3.373   1 
 1 248 39 3.373   1 
 1 248 40 3.373   1 
 1 248 41 3.373   1 
 1 248 42 3.373   1 
 1 248 43 3.373   1 
 1 248 44 3.373   1 
 1 248 45 3.373   1 
 1 248 46 3.373   1 
 1 248 47 3.373   1 
 1 248 48 3.373   1 
 1 248 49 3.373   1 
 1 248 50 3.373   1 
 1 248 51 3.373   1 
 1 248 52 3.373   1 
 1 248 53 3.373   1 
 1 248 54 3.373   1 
 1 248 55 3.373   1 
 1 248 56 3.373   1 
 1 248 57 3.373   1 
 1 248 58 3.373   1 
 1 248 59 3.373   1 
 1 248 60 3.373   1 
 1 248 61 3.373   1 
 1 248 62 3.373   1 
 1 248 63 3.373   1 
 1 248 64 3.373   1 
 1 248 65 3.373   1 
 1 248 66 3.373   1 
 1 248 67 3.373   1 
 1 248 68 3.373   1 
 1 248 69 3.373   1 
 1 248 70 3.373   1 
 1 248 71 3.373   1 
 1 248 72 3.373   1 
 1 248 73 3.373   1 
 1 248 74 3.373   1 
 1 248 75 3.373   1 
 1 248 76 3.373   1 
 1 248 77 3.373   1 
 1 248 78 3.373   1 
 1 248 79 3.373   1 
 1 248 80 3.373   1 
 1 248 81 3.373   1 
 1 248 82 3.373   1 
 1 248 83 3.373   1 
 1 248 84 3.373   1 
 1 248 85 3.373   1 
 1 249 13 3.373   1 
 1 249 14 3.373   1 
 1 249 15 3.373   1 
 1 249 16 3.373   1 
 1 249 17 3.373   1 
 1 249 18 3.373   1 
 1 249 19 3.373   1 
 1 249 20 3.373   1 
 1 249 21 3.373   1 
 1 249 22 3.373   1 
 1 249 23 3.373   1 
 1 249 24 3.373   1 
 1 249 25 3.373   1 
 1 249 26 3.373   1 
 1 249 27 3.373   1 
 1 249 28 3.373   1 
 1 249 29 3.373   1 
 1 249 30 3.373   1 
 1 249 31 3.373   1 
 1 249 32 3.373   1 
 1 249 33 3.373   1 
 1 249 34 3.373   1 
 1 249 35 3.373   1 
 1 249 36 3.373   1 
 1 249 37 3.373   1 
 1 249 38 3.373   1 
 1 249 39 3.373   1 
 1 249 40 3.373   1 
 1 249 41 3.373   1 
 1 249 42 3.373   1 
 1 249 43 3.373   1 
 1 249 44 3.373   1 
 1 249 45 3.373   1 
 1 249 46 3.373   1 
 1 249 47 3.373   1 
 1 249 48 3.373   1 
 1 249 49 3.373   1 
 1 249 50 3.373   1 
 1 249 51 3.373   1 
 1 249 52 3.373   1 
 1 249 53 3.373   1 
 1 249 54 3.373   1 
 1 249 55 3.373   1 
 1 249 56 3.373   1 
 1 249 57 3.373   1 
 1 249 58 3.373   1 
 1 249 59 3.373   1 
 1 249 60 3.373   1 
 1 249 61 3.373   1 
 1 249 62 3.373   1 
 1 249 63 3.373   1 
 1 249 64 3.373   1 
 1 249 65 3.373   1 
 1 249 66 3.373   1 
 1 249 67 3.373   1 
 1 249 68 3.373   1 
 1 249 69 3.373   1 
 1 249 70 3.373   1 
 1 249 71 3.373   1 
 1 249 72 3.373   1 
 1 249 73 3.373   1 
 1 249 74 3.373   1 
 1 249 75 3.373   1 
 1 249 76 3.373   1 
 1 249 77 3.373   1 
 1 249 78 3.373   1 
 1 249 79 3.373   1 
 1 249 80 3.373   1 
 1 249 81 3.373   1 
 1 249 82 3.373   1 
 1 249 83 3.373   1 
 1 249 84 3.373   1 
 1 249 85 3.373   1 
 1 250 13 3.373   1 
 1 250 14 3.373   1 
 1 250 15 3.373   1 
 1 250 16 3.373   1 
 1 250 17 3.373   1 
 1 250 18 3.373   1 
 1 250 19 3.373   1 
 1 250 20 3.373   1 
 1 250 21 3.373   1 
 1 250 22 3.373   1 
 1 250 23 3.373   1 
 1 250 24 3.373   1 
 1 250 25 3.373   1 
 1 250 26 3.373   1 
 1 250 27 3.373   1 
 1 250 28 3.373   1 
 1 250 29 3.373   1 
 1 250 30 3.373   1 
 1 250 31 3.373   1 
 1 250 32 3.373   1 
 1 250 33 3.373   1 
 1 250 34 3.373   1 
 1 250 35 3.373   1 
 1 250 36 3.373   1 
 1 250 37 3.373   1 
 1 250 38 3.373   1 
 1 250 39 3.373   1 
 1 250 40 3.373   1 
 1 250 41 3.373   1 
 1 250 42 3.373   1 
 1 250 43 3.373   1 
 1 250 44 3.373   1 
 1 250 45 3.373   1 
 1 250 46 3.373   1 
 1 250 47 3.373   1 
 1 250 48 3.373   1 
 1 250 49 3.373   1 
 1 250 50 3.373   1 
 1 250 51 3.373   1 
 1 250 52 3.373   1 
 1 250 53 3.373   1 
 1 250 54 3.373   1 
 1 250 55 3.373   1 
 1 250 56 3.373   1 
 1 250 57 3.373   1 
 1 250 58 3.373   1 
 1 250 59 3.373   1 
 1 250 60 3.373   1 
 1 250 61 3.373   1 
 1 250 62 3.373   1 
 1 250 63 3.373   1 
 1 250 64 3.373   1 
 1 250 65 3.373   1 
 1 250 66 3.373   1 
 1 250 67 3.373   1 
 1 250 68 3.373   1 
 1 250 69 3.373   1 
 1 250 70 3.373   1 
 1 250 71 3.373   1 
 1 250 72 3.373   1 
 1 250 73 3.373   1 
 1 250 74 3.373   1 
 1 250 75 3.373   1 
 1 250 76 3.373   1 
 1 250 77 3.373   1 
 1 250 78 3.373   1 
 1 250 79 3.373   1 
 1 250 80 3.373   1 
 1 250 81 3.373   1 
 1 250 82 3.373   1 
 1 250 83 3.373   1 
 1 250 84 3.373   1 
 1 250 85 3.373   1 
 1 251 13 3.373   1 
 1 251 14 3.373   1 
 1 251 15 3.373   1 
 1 251 16 3.373   1 
 1 251 17 3.373   1 
 1 251 18 3.373   1 
 1 251 19 3.373   1 
 1 251 20 3.373   1 
 1 251 21 3.373   1 
 1 251 22 3.373   1 
 1 251 23 3.373   1 
 1 251 24 3.373   1 
 1 251 25 3.373   1 
 1 251 26 3.373   1 
 1 251 27 3.373   1 
 1 251 28 3.373   1 
 1 251 29 3.373   1 
 1 251 30 3.373   1 
 1 251 31 3.373   1 
 1 251 32 3.373   1 
 1 251 33 3.373   1 
 1 251 34 3.373   1 
 1 251 35 3.373   1 
 1 251 36 3.373   1 
 1 251 37 3.373   1 
 1 251 38 3.373   1 
 1 251 39 3.373   1 
 1 251 40 3.373   1 
 1 251 41 3.373   1 
 1 251 42 3.373   1 
 1 251 43 3.373   1 
 1 251 44 3.373   1 
 1 251 45 3.373   1 
 1 251 46 3.373   1 
 1 251 47 3.373   1 
 1 251 48 3.373   1 
 1 251 49 3.373   1 
 1 251 50 3.373   1 
 1 251 51 3.373   1 
 1 251 52 3.373   1 
 1 251 53 3.373   1 
 1 251 54 3.373   1 
 1 251 55 3.373   1 
 1 251 56 3.373   1 
 1 251 57 3.373   1 
 1 251 58 3.373   1 
 1 251 59 3.373   1 
 1 251 60 3.373   1 
 1 251 61 3.373   1 
 1 251 62 3.373   1 
 1 251 63 3.373   1 
 1 251 64 3.373   1 
 1 251 65 3.373   1 
 1 251 66 3.373   1 
 1 251 67 3.373   1 
 1 251 68 3.373   1 
 1 251 69 3.373   1 
 1 251 70 3.373   1 
 1 251 71 3.373   1 
 1 251 72 3.373   1 
 1 251 73 3.373   1 
 1 251 74 3.373   1 
 1 251 75 3.373   1 
 1 251 76 3.373   1 
 1 251 77 3.373   1 