# RCH package for MODFLOW-2005 generated by Flopy 3.6.0
         3        50
         1        -1 # Stress period 1
OPEN/CLOSE          rech_arrays\rech_0.ref               1     (FREE) -1 rech_1                        
         1        -1 # Stress period 2
OPEN/CLOSE          rech_arrays\rech_1.ref               1     (FREE) -1 rech_2                        
         1        -1 # Stress period 3
OPEN/CLOSE          rech_arrays\rech_2.ref               1     (FREE) -1 rech_3                        
         1        -1 # Stress period 4
OPEN/CLOSE          rech_arrays\rech_3.ref               1     (FREE) -1 rech_4                        
         1        -1 # Stress period 5
OPEN/CLOSE          rech_arrays\rech_4.ref               1     (FREE) -1 rech_5                        
         1        -1 # Stress period 6
OPEN/CLOSE          rech_arrays\rech_5.ref               1     (FREE) -1 rech_6                        
         1        -1 # Stress period 7
OPEN/CLOSE          rech_arrays\rech_6.ref               1     (FREE) -1 rech_7                        
         1        -1 # Stress period 8
OPEN/CLOSE          rech_arrays\rech_7.ref               1     (FREE) -1 rech_8                        
         1        -1 # Stress period 9
OPEN/CLOSE          rech_arrays\rech_8.ref               1     (FREE) -1 rech_9                        
         1        -1 # Stress period 10
OPEN/CLOSE          rech_arrays\rech_9.ref               1     (FREE) -1 rech_10                       
         1        -1 # Stress period 11
OPEN/CLOSE         rech_arrays\rech_10.ref               1     (FREE) -1 rech_11                       
         1        -1 # Stress period 12
OPEN/CLOSE         rech_arrays\rech_11.ref               1     (FREE) -1 rech_12                       
         1        -1 # Stress period 13
OPEN/CLOSE         rech_arrays\rech_12.ref               1     (FREE) -1 rech_13                       
         1        -1 # Stress period 14
OPEN/CLOSE         rech_arrays\rech_13.ref               1     (FREE) -1 rech_14                       
         1        -1 # Stress period 15
OPEN/CLOSE         rech_arrays\rech_14.ref               1     (FREE) -1 rech_15                       
         1        -1 # Stress period 16
OPEN/CLOSE         rech_arrays\rech_15.ref               1     (FREE) -1 rech_16                       
         1        -1 # Stress period 17
OPEN/CLOSE         rech_arrays\rech_16.ref               1     (FREE) -1 rech_17                       
         1        -1 # Stress period 18
OPEN/CLOSE         rech_arrays\rech_17.ref               1     (FREE) -1 rech_18                       
         1        -1 # Stress period 19
OPEN/CLOSE         rech_arrays\rech_18.ref               1     (FREE) -1 rech_19                       
         1        -1 # Stress period 20
OPEN/CLOSE         rech_arrays\rech_19.ref               1     (FREE) -1 rech_20                       
         1        -1 # Stress period 21
OPEN/CLOSE         rech_arrays\rech_20.ref               1     (FREE) -1 rech_21                       
         1        -1 # Stress period 22
OPEN/CLOSE         rech_arrays\rech_21.ref               1     (FREE) -1 rech_22                       
         1        -1 # Stress period 23
OPEN/CLOSE         rech_arrays\rech_22.ref               1     (FREE) -1 rech_23                       
         1        -1 # Stress period 24
OPEN/CLOSE         rech_arrays\rech_23.ref               1     (FREE) -1 rech_24                       
         1        -1 # Stress period 25
OPEN/CLOSE         rech_arrays\rech_24.ref               1     (FREE) -1 rech_25                       
         1        -1 # Stress period 26
OPEN/CLOSE         rech_arrays\rech_25.ref               1     (FREE) -1 rech_26                       
         1        -1 # Stress period 27
OPEN/CLOSE         rech_arrays\rech_26.ref               1     (FREE) -1 rech_27                       
         1        -1 # Stress period 28
OPEN/CLOSE         rech_arrays\rech_27.ref               1     (FREE) -1 rech_28                       
         1        -1 # Stress period 29
OPEN/CLOSE         rech_arrays\rech_28.ref               1     (FREE) -1 rech_29                       
         1        -1 # Stress period 30
OPEN/CLOSE         rech_arrays\rech_29.ref               1     (FREE) -1 rech_30                       
         1        -1 # Stress period 31
OPEN/CLOSE         rech_arrays\rech_30.ref               1     (FREE) -1 rech_31                       
         1        -1 # Stress period 32
OPEN/CLOSE         rech_arrays\rech_31.ref               1     (FREE) -1 rech_32                       
         1        -1 # Stress period 33
OPEN/CLOSE         rech_arrays\rech_32.ref               1     (FREE) -1 rech_33                       
         1        -1 # Stress period 34
OPEN/CLOSE         rech_arrays\rech_33.ref               1     (FREE) -1 rech_34                       
         1        -1 # Stress period 35
OPEN/CLOSE         rech_arrays\rech_34.ref               1     (FREE) -1 rech_35                       
         1        -1 # Stress period 36
OPEN/CLOSE         rech_arrays\rech_35.ref               1     (FREE) -1 rech_36                       
         1        -1 # Stress period 37
OPEN/CLOSE         rech_arrays\rech_36.ref               1     (FREE) -1 rech_37                       
         1        -1 # Stress period 38
OPEN/CLOSE         rech_arrays\rech_37.ref               1     (FREE) -1 rech_38                       
         1        -1 # Stress period 39
OPEN/CLOSE         rech_arrays\rech_38.ref               1     (FREE) -1 rech_39                       
         1        -1 # Stress period 40
OPEN/CLOSE         rech_arrays\rech_39.ref               1     (FREE) -1 rech_40                       
         1        -1 # Stress period 41
OPEN/CLOSE         rech_arrays\rech_40.ref               1     (FREE) -1 rech_41                       
         1        -1 # Stress period 42
OPEN/CLOSE         rech_arrays\rech_41.ref               1     (FREE) -1 rech_42                       
         1        -1 # Stress period 43
OPEN/CLOSE         rech_arrays\rech_42.ref               1     (FREE) -1 rech_43                       
         1        -1 # Stress period 44
OPEN/CLOSE         rech_arrays\rech_43.ref               1     (FREE) -1 rech_44                       
         1        -1 # Stress period 45
OPEN/CLOSE         rech_arrays\rech_44.ref               1     (FREE) -1 rech_45                       
         1        -1 # Stress period 46
OPEN/CLOSE         rech_arrays\rech_45.ref               1     (FREE) -1 rech_46                       
         1        -1 # Stress period 47
OPEN/CLOSE         rech_arrays\rech_46.ref               1     (FREE) -1 rech_47                       
         1        -1 # Stress period 48
OPEN/CLOSE         rech_arrays\rech_47.ref               1     (FREE) -1 rech_48                       
         1        -1 # Stress period 49
OPEN/CLOSE         rech_arrays\rech_48.ref               1     (FREE) -1 rech_49                       
         1        -1 # Stress period 50
OPEN/CLOSE         rech_arrays\rech_49.ref               1     (FREE) -1 rech_50                       
         1        -1 # Stress period 51
OPEN/CLOSE         rech_arrays\rech_50.ref               1     (FREE) -1 rech_51                       
         1        -1 # Stress period 52
OPEN/CLOSE         rech_arrays\rech_51.ref               1     (FREE) -1 rech_52                       
         1        -1 # Stress period 53
OPEN/CLOSE         rech_arrays\rech_52.ref               1     (FREE) -1 rech_53                       
         1        -1 # Stress period 54
OPEN/CLOSE         rech_arrays\rech_53.ref               1     (FREE) -1 rech_54                       
         1        -1 # Stress period 55
OPEN/CLOSE         rech_arrays\rech_54.ref               1     (FREE) -1 rech_55                       
         1        -1 # Stress period 56
OPEN/CLOSE         rech_arrays\rech_55.ref               1     (FREE) -1 rech_56                       
         1        -1 # Stress period 57
OPEN/CLOSE         rech_arrays\rech_56.ref               1     (FREE) -1 rech_57                       
         1        -1 # Stress period 58
OPEN/CLOSE         rech_arrays\rech_57.ref               1     (FREE) -1 rech_58                       
         1        -1 # Stress period 59
OPEN/CLOSE         rech_arrays\rech_58.ref               1     (FREE) -1 rech_59                       
         1        -1 # Stress period 60
OPEN/CLOSE         rech_arrays\rech_59.ref               1     (FREE) -1 rech_60                       
         1        -1 # Stress period 61
OPEN/CLOSE         rech_arrays\rech_60.ref               1     (FREE) -1 rech_61                       
         1        -1 # Stress period 62
OPEN/CLOSE         rech_arrays\rech_61.ref               1     (FREE) -1 rech_62                       
         1        -1 # Stress period 63
OPEN/CLOSE         rech_arrays\rech_62.ref               1     (FREE) -1 rech_63                       
         1        -1 # Stress period 64
OPEN/CLOSE         rech_arrays\rech_63.ref               1     (FREE) -1 rech_64                       
         1        -1 # Stress period 65
OPEN/CLOSE         rech_arrays\rech_64.ref               1     (FREE) -1 rech_65                       
         1        -1 # Stress period 66
OPEN/CLOSE         rech_arrays\rech_65.ref               1     (FREE) -1 rech_66                       
         1        -1 # Stress period 67
OPEN/CLOSE         rech_arrays\rech_66.ref               1     (FREE) -1 rech_67                       
         1        -1 # Stress period 68
OPEN/CLOSE         rech_arrays\rech_67.ref               1     (FREE) -1 rech_68                       
         1        -1 # Stress period 69
OPEN/CLOSE         rech_arrays\rech_68.ref               1     (FREE) -1 rech_69                       
         1        -1 # Stress period 70
OPEN/CLOSE         rech_arrays\rech_69.ref               1     (FREE) -1 rech_70                       
         1        -1 # Stress period 71
OPEN/CLOSE         rech_arrays\rech_70.ref               1     (FREE) -1 rech_71                       
         1        -1 # Stress period 72
OPEN/CLOSE         rech_arrays\rech_71.ref               1     (FREE) -1 rech_72                       
         1        -1 # Stress period 73
OPEN/CLOSE         rech_arrays\rech_72.ref               1     (FREE) -1 rech_73                       
         1        -1 # Stress period 74
OPEN/CLOSE         rech_arrays\rech_73.ref               1     (FREE) -1 rech_74                       
         1        -1 # Stress period 75
OPEN/CLOSE         rech_arrays\rech_74.ref               1     (FREE) -1 rech_75                       
         1        -1 # Stress period 76
OPEN/CLOSE         rech_arrays\rech_75.ref               1     (FREE) -1 rech_76                       
         1        -1 # Stress period 77
OPEN/CLOSE         rech_arrays\rech_76.ref               1     (FREE) -1 rech_77                       
         1        -1 # Stress period 78
OPEN/CLOSE         rech_arrays\rech_77.ref               1     (FREE) -1 rech_78                       
         1        -1 # Stress period 79
OPEN/CLOSE         rech_arrays\rech_78.ref               1     (FREE) -1 rech_79                       
         1        -1 # Stress period 80
OPEN/CLOSE         rech_arrays\rech_79.ref               1     (FREE) -1 rech_80                       
         1        -1 # Stress period 81
OPEN/CLOSE         rech_arrays\rech_80.ref               1     (FREE) -1 rech_81                       
         1        -1 # Stress period 82
OPEN/CLOSE         rech_arrays\rech_81.ref               1     (FREE) -1 rech_82                       
         1        -1 # Stress period 83
OPEN/CLOSE         rech_arrays\rech_82.ref               1     (FREE) -1 rech_83                       
         1        -1 # Stress period 84
OPEN/CLOSE         rech_arrays\rech_83.ref               1     (FREE) -1 rech_84                       
         1        -1 # Stress period 85
OPEN/CLOSE         rech_arrays\rech_84.ref               1     (FREE) -1 rech_85                       
         1        -1 # Stress period 86
OPEN/CLOSE         rech_arrays\rech_85.ref               1     (FREE) -1 rech_86                       
         1        -1 # Stress period 87
OPEN/CLOSE         rech_arrays\rech_86.ref               1     (FREE) -1 rech_87                       
         1        -1 # Stress period 88
OPEN/CLOSE         rech_arrays\rech_87.ref               1     (FREE) -1 rech_88                       
         1        -1 # Stress period 89
OPEN/CLOSE         rech_arrays\rech_88.ref               1     (FREE) -1 rech_89                       
         1        -1 # Stress period 90
OPEN/CLOSE         rech_arrays\rech_89.ref               1     (FREE) -1 rech_90                       
         1        -1 # Stress period 91
OPEN/CLOSE         rech_arrays\rech_90.ref               1     (FREE) -1 rech_91                       
         1        -1 # Stress period 92
OPEN/CLOSE         rech_arrays\rech_91.ref               1     (FREE) -1 rech_92                       
         1        -1 # Stress period 93
OPEN/CLOSE         rech_arrays\rech_92.ref               1     (FREE) -1 rech_93                       
         1        -1 # Stress period 94
OPEN/CLOSE         rech_arrays\rech_93.ref               1     (FREE) -1 rech_94                       
         1        -1 # Stress period 95
OPEN/CLOSE         rech_arrays\rech_94.ref               1     (FREE) -1 rech_95                       
         1        -1 # Stress period 96
OPEN/CLOSE         rech_arrays\rech_95.ref               1     (FREE) -1 rech_96                       
         1        -1 # Stress period 97
OPEN/CLOSE         rech_arrays\rech_96.ref               1     (FREE) -1 rech_97                       
         1        -1 # Stress period 98
OPEN/CLOSE         rech_arrays\rech_97.ref               1     (FREE) -1 rech_98                       
         1        -1 # Stress period 99
OPEN/CLOSE         rech_arrays\rech_98.ref               1     (FREE) -1 rech_99                       
         1        -1 # Stress period 100
OPEN/CLOSE         rech_arrays\rech_99.ref               1     (FREE) -1 rech_100                      
         1        -1 # Stress period 101
OPEN/CLOSE        rech_arrays\rech_100.ref               1     (FREE) -1 rech_101                      
         1        -1 # Stress period 102
OPEN/CLOSE        rech_arrays\rech_101.ref               1     (FREE) -1 rech_102                      
         1        -1 # Stress period 103
OPEN/CLOSE        rech_arrays\rech_102.ref               1     (FREE) -1 rech_103                      
         1        -1 # Stress period 104
OPEN/CLOSE        rech_arrays\rech_103.ref               1     (FREE) -1 rech_104                      
         1        -1 # Stress period 105
OPEN/CLOSE        rech_arrays\rech_104.ref               1     (FREE) -1 rech_105                      
         1        -1 # Stress period 106
OPEN/CLOSE        rech_arrays\rech_105.ref               1     (FREE) -1 rech_106                      
         1        -1 # Stress period 107
OPEN/CLOSE        rech_arrays\rech_106.ref               1     (FREE) -1 rech_107                      
         1        -1 # Stress period 108
OPEN/CLOSE        rech_arrays\rech_107.ref               1     (FREE) -1 rech_108                      
         1        -1 # Stress period 109
OPEN/CLOSE        rech_arrays\rech_108.ref               1     (FREE) -1 rech_109                      
         1        -1 # Stress period 110
OPEN/CLOSE        rech_arrays\rech_109.ref               1     (FREE) -1 rech_110                      
         1        -1 # Stress period 111
OPEN/CLOSE        rech_arrays\rech_110.ref               1     (FREE) -1 rech_111                      
         1        -1 # Stress period 112
OPEN/CLOSE        rech_arrays\rech_111.ref               1     (FREE) -1 rech_112                      
         1        -1 # Stress period 113
OPEN/CLOSE        rech_arrays\rech_112.ref               1     (FREE) -1 rech_113                      
         1        -1 # Stress period 114
OPEN/CLOSE        rech_arrays\rech_113.ref               1     (FREE) -1 rech_114                      
         1        -1 # Stress period 115
OPEN/CLOSE        rech_arrays\rech_114.ref               1     (FREE) -1 rech_115                      
         1        -1 # Stress period 116
OPEN/CLOSE        rech_arrays\rech_115.ref               1     (FREE) -1 rech_116                      
         1        -1 # Stress period 117
OPEN/CLOSE        rech_arrays\rech_116.ref               1     (FREE) -1 rech_117                      
         1        -1 # Stress period 118
OPEN/CLOSE        rech_arrays\rech_117.ref               1     (FREE) -1 rech_118                      
         1        -1 # Stress period 119
OPEN/CLOSE        rech_arrays\rech_118.ref               1     (FREE) -1 rech_119                      
         1        -1 # Stress period 120
OPEN/CLOSE        rech_arrays\rech_119.ref               1     (FREE) -1 rech_120                      
         1        -1 # Stress period 121
OPEN/CLOSE        rech_arrays\rech_120.ref               1     (FREE) -1 rech_121                      
         1        -1 # Stress period 122
OPEN/CLOSE        rech_arrays\rech_121.ref               1     (FREE) -1 rech_122                      
         1        -1 # Stress period 123
OPEN/CLOSE        rech_arrays\rech_122.ref               1     (FREE) -1 rech_123                      
         1        -1 # Stress period 124
OPEN/CLOSE        rech_arrays\rech_123.ref               1     (FREE) -1 rech_124                      
         1        -1 # Stress period 125
OPEN/CLOSE        rech_arrays\rech_124.ref               1     (FREE) -1 rech_125                      
         1        -1 # Stress period 126
OPEN/CLOSE        rech_arrays\rech_125.ref               1     (FREE) -1 rech_126                      
         1        -1 # Stress period 127
OPEN/CLOSE        rech_arrays\rech_126.ref               1     (FREE) -1 rech_127                      
         1        -1 # Stress period 128
OPEN/CLOSE        rech_arrays\rech_127.ref               1     (FREE) -1 rech_128                      
         1        -1 # Stress period 129
OPEN/CLOSE        rech_arrays\rech_128.ref               1     (FREE) -1 rech_129                      
         1        -1 # Stress period 130
OPEN/CLOSE        rech_arrays\rech_129.ref               1     (FREE) -1 rech_130                      
         1        -1 # Stress period 131
OPEN/CLOSE        rech_arrays\rech_130.ref               1     (FREE) -1 rech_131                      
         1        -1 # Stress period 132
OPEN/CLOSE        rech_arrays\rech_131.ref               1     (FREE) -1 rech_132                      
         1        -1 # Stress period 133
OPEN/CLOSE        rech_arrays\rech_132.ref               1     (FREE) -1 rech_133                      
         1        -1 # Stress period 134
OPEN/CLOSE        rech_arrays\rech_133.ref               1     (FREE) -1 rech_134                      
         1        -1 # Stress period 135
OPEN/CLOSE        rech_arrays\rech_134.ref               1     (FREE) -1 rech_135                      
         1        -1 # Stress period 136
OPEN/CLOSE        rech_arrays\rech_135.ref               1     (FREE) -1 rech_136                      
         1        -1 # Stress period 137
OPEN/CLOSE        rech_arrays\rech_136.ref               1     (FREE) -1 rech_137                      
         1        -1 # Stress period 138
OPEN/CLOSE        rech_arrays\rech_137.ref               1     (FREE) -1 rech_138                      
         1        -1 # Stress period 139
OPEN/CLOSE        rech_arrays\rech_138.ref               1     (FREE) -1 rech_139                      
         1        -1 # Stress period 140
OPEN/CLOSE        rech_arrays\rech_139.ref               1     (FREE) -1 rech_140                      
         1        -1 # Stress period 141
OPEN/CLOSE        rech_arrays\rech_140.ref               1     (FREE) -1 rech_141                      
         1        -1 # Stress period 142
OPEN/CLOSE        rech_arrays\rech_141.ref               1     (FREE) -1 rech_142                      
         1        -1 # Stress period 143
OPEN/CLOSE        rech_arrays\rech_142.ref               1     (FREE) -1 rech_143                      
         1        -1 # Stress period 144
OPEN/CLOSE        rech_arrays\rech_143.ref               1     (FREE) -1 rech_144                      
         1        -1 # Stress period 145
OPEN/CLOSE        rech_arrays\rech_144.ref               1     (FREE) -1 rech_145                      
         1        -1 # Stress period 146
OPEN/CLOSE        rech_arrays\rech_145.ref               1     (FREE) -1 rech_146                      
         1        -1 # Stress period 147
OPEN/CLOSE        rech_arrays\rech_146.ref               1     (FREE) -1 rech_147                      
         1        -1 # Stress period 148
OPEN/CLOSE        rech_arrays\rech_147.ref               1     (FREE) -1 rech_148                      
         1        -1 # Stress period 149
OPEN/CLOSE        rech_arrays\rech_148.ref               1     (FREE) -1 rech_149                      
         1        -1 # Stress period 150
OPEN/CLOSE        rech_arrays\rech_149.ref               1     (FREE) -1 rech_150                      
         1        -1 # Stress period 151
OPEN/CLOSE        rech_arrays\rech_150.ref               1     (FREE) -1 rech_151                      
         1        -1 # Stress period 152
OPEN/CLOSE        rech_arrays\rech_151.ref               1     (FREE) -1 rech_152                      
         1        -1 # Stress period 153
OPEN/CLOSE        rech_arrays\rech_152.ref               1     (FREE) -1 rech_153                      
         1        -1 # Stress period 154
OPEN/CLOSE        rech_arrays\rech_153.ref               1     (FREE) -1 rech_154                      
         1        -1 # Stress period 155
OPEN/CLOSE        rech_arrays\rech_154.ref               1     (FREE) -1 rech_155                      
         1        -1 # Stress period 156
OPEN/CLOSE        rech_arrays\rech_155.ref               1     (FREE) -1 rech_156                      
         1        -1 # Stress period 157
OPEN/CLOSE        rech_arrays\rech_156.ref               1     (FREE) -1 rech_157                      
         1        -1 # Stress period 158
OPEN/CLOSE        rech_arrays\rech_157.ref               1     (FREE) -1 rech_158                      
         1        -1 # Stress period 159
OPEN/CLOSE        rech_arrays\rech_158.ref               1     (FREE) -1 rech_159                      
         1        -1 # Stress period 160
OPEN/CLOSE        rech_arrays\rech_159.ref               1     (FREE) -1 rech_160                      
         1        -1 # Stress period 161
OPEN/CLOSE        rech_arrays\rech_160.ref               1     (FREE) -1 rech_161                      
         1        -1 # Stress period 162
OPEN/CLOSE        rech_arrays\rech_161.ref               1     (FREE) -1 rech_162                      
         1        -1 # Stress period 163
OPEN/CLOSE        rech_arrays\rech_162.ref               1     (FREE) -1 rech_163                      
         1        -1 # Stress period 164
OPEN/CLOSE        rech_arrays\rech_163.ref               1     (FREE) -1 rech_164                      
         1        -1 # Stress period 165
OPEN/CLOSE        rech_arrays\rech_164.ref               1     (FREE) -1 rech_165                      
         1        -1 # Stress period 166
OPEN/CLOSE        rech_arrays\rech_165.ref               1     (FREE) -1 rech_166                      
         1        -1 # Stress period 167
OPEN/CLOSE        rech_arrays\rech_166.ref               1     (FREE) -1 rech_167                      
         1        -1 # Stress period 168
OPEN/CLOSE        rech_arrays\rech_167.ref               1     (FREE) -1 rech_168                      
         1        -1 # Stress period 169
OPEN/CLOSE        rech_arrays\rech_168.ref               1     (FREE) -1 rech_169                      
         1        -1 # Stress period 170
OPEN/CLOSE        rech_arrays\rech_169.ref               1     (FREE) -1 rech_170                      
         1        -1 # Stress period 171
OPEN/CLOSE        rech_arrays\rech_170.ref               1     (FREE) -1 rech_171                      
         1        -1 # Stress period 172
OPEN/CLOSE        rech_arrays\rech_171.ref               1     (FREE) -1 rech_172                      
         1        -1 # Stress period 173
OPEN/CLOSE        rech_arrays\rech_172.ref               1     (FREE) -1 rech_173                      
         1        -1 # Stress period 174
OPEN/CLOSE        rech_arrays\rech_173.ref               1     (FREE) -1 rech_174                      
         1        -1 # Stress period 175
OPEN/CLOSE        rech_arrays\rech_174.ref               1     (FREE) -1 rech_175                      
         1        -1 # Stress period 176
OPEN/CLOSE        rech_arrays\rech_175.ref               1     (FREE) -1 rech_176                      
         1        -1 # Stress period 177
OPEN/CLOSE        rech_arrays\rech_176.ref               1     (FREE) -1 rech_177                      
         1        -1 # Stress period 178
OPEN/CLOSE        rech_arrays\rech_177.ref               1     (FREE) -1 rech_178                      
         1        -1 # Stress period 179
OPEN/CLOSE        rech_arrays\rech_178.ref               1     (FREE) -1 rech_179                      
         1        -1 # Stress period 180
OPEN/CLOSE        rech_arrays\rech_179.ref               1     (FREE) -1 rech_180                      
         1        -1 # Stress period 181
OPEN/CLOSE        rech_arrays\rech_180.ref               1     (FREE) -1 rech_181                      
         1        -1 # Stress period 182
OPEN/CLOSE        rech_arrays\rech_181.ref               1     (FREE) -1 rech_182                      
         1        -1 # Stress period 183
OPEN/CLOSE        rech_arrays\rech_182.ref               1     (FREE) -1 rech_183                      
         1        -1 # Stress period 184
OPEN/CLOSE        rech_arrays\rech_183.ref               1     (FREE) -1 rech_184                      
         1        -1 # Stress period 185
OPEN/CLOSE        rech_arrays\rech_184.ref               1     (FREE) -1 rech_185                      
         1        -1 # Stress period 186
OPEN/CLOSE        rech_arrays\rech_185.ref               1     (FREE) -1 rech_186                      
         1        -1 # Stress period 187
OPEN/CLOSE        rech_arrays\rech_186.ref               1     (FREE) -1 rech_187                      
         1        -1 # Stress period 188
OPEN/CLOSE        rech_arrays\rech_187.ref               1     (FREE) -1 rech_188                      
         1        -1 # Stress period 189
OPEN/CLOSE        rech_arrays\rech_188.ref               1     (FREE) -1 rech_189                      
         1        -1 # Stress period 190
OPEN/CLOSE        rech_arrays\rech_189.ref               1     (FREE) -1 rech_190                      
         1        -1 # Stress period 191
OPEN/CLOSE        rech_arrays\rech_190.ref               1     (FREE) -1 rech_191                      
         1        -1 # Stress period 192
OPEN/CLOSE        rech_arrays\rech_191.ref               1     (FREE) -1 rech_192                      
         1        -1 # Stress period 193
OPEN/CLOSE        rech_arrays\rech_192.ref               1     (FREE) -1 rech_193                      
         1        -1 # Stress period 194
OPEN/CLOSE        rech_arrays\rech_193.ref               1     (FREE) -1 rech_194                      
         1        -1 # Stress period 195
OPEN/CLOSE        rech_arrays\rech_194.ref               1     (FREE) -1 rech_195                      
         1        -1 # Stress period 196
OPEN/CLOSE        rech_arrays\rech_195.ref               1     (FREE) -1 rech_196                      
         1        -1 # Stress period 197
OPEN/CLOSE        rech_arrays\rech_196.ref               1     (FREE) -1 rech_197                      
         1        -1 # Stress period 198
OPEN/CLOSE        rech_arrays\rech_197.ref               1     (FREE) -1 rech_198                      
         1        -1 # Stress period 199
OPEN/CLOSE        rech_arrays\rech_198.ref               1     (FREE) -1 rech_199                      
         1        -1 # Stress period 200
OPEN/CLOSE        rech_arrays\rech_199.ref               1     (FREE) -1 rech_200                      
         1        -1 # Stress period 201
OPEN/CLOSE        rech_arrays\rech_200.ref               1     (FREE) -1 rech_201                      
         1        -1 # Stress period 202
OPEN/CLOSE        rech_arrays\rech_201.ref               1     (FREE) -1 rech_202                      
         1        -1 # Stress period 203
OPEN/CLOSE        rech_arrays\rech_202.ref               1     (FREE) -1 rech_203                      
         1        -1 # Stress period 204
OPEN/CLOSE        rech_arrays\rech_203.ref               1     (FREE) -1 rech_204                      
         1        -1 # Stress period 205
OPEN/CLOSE        rech_arrays\rech_204.ref               1     (FREE) -1 rech_205                      
         1        -1 # Stress period 206
OPEN/CLOSE        rech_arrays\rech_205.ref               1     (FREE) -1 rech_206                      
         1        -1 # Stress period 207
OPEN/CLOSE        rech_arrays\rech_206.ref               1     (FREE) -1 rech_207                      